$DATA1 SOURCE='HSPICE' VERSION='J-2014.09 64-BIT'
.TITLE 'connecting a dut inverter with f04 configuration, and sweeping fanout of'
 fanout           delay_l_to_h     delay_h_to_l     temper          
                  alter#          
    1.000000       5.92267e-12      7.73554e-12       25.000000     
                  1               
    2.000000       7.99412e-12      9.84998e-12       25.000000     
                  1               
    3.000000       9.73037e-12      1.17777e-11       25.000000     
                  1               
    4.000000       1.12999e-11      1.36128e-11       25.000000     
                  1               
    5.000000       1.27795e-11      1.54016e-11       25.000000     
                  1               
    6.000000       1.42091e-11      1.71698e-11       25.000000     
                  1               
    7.000000       1.56112e-11      1.89330e-11       25.000000     
                  1               
    8.000000       1.69997e-11      2.07009e-11       25.000000     
                  1               
    9.000000       1.83833e-11      2.24801e-11       25.000000     
                  1               
   10.000000       1.97674e-11      2.42746e-11       25.000000     
                  1               
   11.000000       2.11557e-11      2.60873e-11       25.000000     
                  1               
   12.000000       2.25504e-11      2.79196e-11       25.000000     
                  1               
   13.000000       2.39531e-11      2.97723e-11       25.000000     
                  1               
   14.000000       2.53644e-11      3.16458e-11       25.000000     
                  1               
   15.000000       2.67848e-11      3.35396e-11       25.000000     
                  1               
   16.000000       2.82144e-11      3.54533e-11       25.000000     
                  1               
   17.000000       2.96533e-11      3.73861e-11       25.000000     
                  1               
   18.000000       3.11011e-11      3.93369e-11       25.000000     
                  1               
   19.000000       3.25578e-11      4.13046e-11       25.000000     
                  1               
   20.000000       3.40229e-11      4.32881e-11       25.000000     
                  1               
   21.000000       3.54962e-11      4.52880e-11       25.000000     
                  1               
   22.000000       3.69774e-11      4.73016e-11       25.000000     
                  1               
   23.000000       3.84661e-11      4.93273e-11       25.000000     
                  1               
   24.000000       3.99621e-11      5.13641e-11       25.000000     
                  1               
   25.000000       4.14650e-11      5.34110e-11       25.000000     
                  1               
   26.000000       4.29745e-11      5.54671e-11       25.000000     
                  1               
   27.000000       4.44904e-11      5.75315e-11       25.000000     
                  1               
   28.000000       4.60135e-11      5.96033e-11       25.000000     
                  1               
   29.000000       4.75422e-11      6.16819e-11       25.000000     
                  1               
   30.000000       4.90763e-11      6.37665e-11       25.000000     
                  1               
   31.000000       5.06156e-11      6.58565e-11       25.000000     
                  1               
   32.000000       5.21599e-11      6.79514e-11       25.000000     
                  1               
   33.000000       5.37091e-11      7.00505e-11       25.000000     
                  1               
   34.000000       5.52630e-11      7.21535e-11       25.000000     
                  1               
   35.000000       5.68213e-11      7.42600e-11       25.000000     
                  1               
   36.000000       5.83840e-11      7.63695e-11       25.000000     
                  1               
   37.000000       5.99507e-11      7.84817e-11       25.000000     
                  1               
   38.000000       6.15214e-11      8.05963e-11       25.000000     
                  1               
   39.000000       6.30958e-11      8.27131e-11       25.000000     
                  1               
   40.000000       6.46739e-11      8.48317e-11       25.000000     
                  1               
   41.000000       6.62553e-11      8.69520e-11       25.000000     
                  1               
   42.000000       6.78401e-11      8.90738e-11       25.000000     
                  1               
   43.000000       6.94281e-11      9.11969e-11       25.000000     
                  1               
   44.000000       7.10190e-11      9.33211e-11       25.000000     
                  1               
   45.000000       7.26128e-11      9.54463e-11       25.000000     
                  1               
   46.000000       7.42094e-11      9.75723e-11       25.000000     
                  1               
   47.000000       7.58086e-11      9.96991e-11       25.000000     
                  1               
   48.000000       7.74103e-11      1.01827e-10       25.000000     
                  1               
   49.000000       7.90145e-11      1.03954e-10       25.000000     
                  1               
   50.000000       8.06209e-11      1.06083e-10       25.000000     
                  1               
   51.000000       8.22295e-11      1.08212e-10       25.000000     
                  1               
   52.000000       8.38402e-11      1.10341e-10       25.000000     
                  1               
   53.000000       8.54529e-11      1.12470e-10       25.000000     
                  1               
   54.000000       8.70675e-11      1.14599e-10       25.000000     
                  1               
   55.000000       8.86839e-11      1.16729e-10       25.000000     
                  1               
   56.000000       9.03020e-11      1.18858e-10       25.000000     
                  1               
   57.000000       9.19218e-11      1.20988e-10       25.000000     
                  1               
   58.000000       9.35432e-11      1.23118e-10       25.000000     
                  1               
   59.000000       9.51660e-11      1.25247e-10       25.000000     
                  1               
   60.000000       9.67903e-11      1.27377e-10       25.000000     
                  1               
   61.000000       9.84159e-11      1.29507e-10       25.000000     
                  1               
   62.000000       1.00043e-10      1.31636e-10       25.000000     
                  1               
   63.000000       1.01671e-10      1.33766e-10       25.000000     
                  1               
   64.000000       1.03300e-10      1.35895e-10       25.000000     
                  1               
   65.000000       1.04931e-10      1.38025e-10       25.000000     
                  1               
   66.000000       1.06562e-10      1.40154e-10       25.000000     
                  1               
   67.000000       1.08194e-10      1.42284e-10       25.000000     
                  1               
   68.000000       1.09828e-10      1.44414e-10       25.000000     
                  1               
   69.000000       1.11462e-10      1.46543e-10       25.000000     
                  1               
   70.000000       1.13097e-10      1.48673e-10       25.000000     
                  1               
   71.000000       1.14733e-10      1.50804e-10       25.000000     
                  1               
   72.000000       1.16369e-10      1.52934e-10       25.000000     
                  1               
   73.000000       1.18007e-10      1.55065e-10       25.000000     
                  1               
   74.000000       1.19644e-10      1.57196e-10       25.000000     
                  1               
   75.000000       1.21283e-10      1.59328e-10       25.000000     
                  1               
   76.000000       1.22922e-10      1.61460e-10       25.000000     
                  1               
   77.000000       1.24561e-10      1.63593e-10       25.000000     
                  1               
   78.000000       1.26201e-10      1.65726e-10       25.000000     
                  1               
   79.000000       1.27842e-10      1.67860e-10       25.000000     
                  1               
   80.000000       1.29482e-10      1.69995e-10       25.000000     
                  1               
   81.000000       1.31123e-10      1.72130e-10       25.000000     
                  1               
   82.000000       1.32764e-10      1.74266e-10       25.000000     
                  1               
   83.000000       1.34406e-10      1.76403e-10       25.000000     
                  1               
   84.000000       1.36047e-10      1.78541e-10       25.000000     
                  1               
   85.000000       1.37689e-10      1.80680e-10       25.000000     
                  1               
   86.000000       1.39330e-10      1.82820e-10       25.000000     
                  1               
   87.000000       1.40972e-10      1.84960e-10       25.000000     
                  1               
   88.000000       1.42613e-10      1.87102e-10       25.000000     
                  1               
   89.000000       1.44255e-10      1.89244e-10       25.000000     
                  1               
   90.000000       1.45896e-10      1.91388e-10       25.000000     
                  1               
   91.000000       1.47536e-10      1.93532e-10       25.000000     
                  1               
   92.000000       1.49176e-10      1.95678e-10       25.000000     
                  1               
   93.000000       1.50816e-10      1.97825e-10       25.000000     
                  1               
   94.000000       1.52455e-10      1.99972e-10       25.000000     
                  1               
   95.000000       1.54093e-10      2.02121e-10       25.000000     
                  1               
   96.000000       1.55731e-10      2.04270e-10       25.000000     
                  1               
   97.000000       1.57367e-10      2.06421e-10       25.000000     
                  1               
   98.000000       1.59003e-10      2.08573e-10       25.000000     
                  1               
   99.000000       1.60638e-10      2.10726e-10       25.000000     
                  1               
  100.000000       1.62271e-10      2.12879e-10       25.000000     
                  1               
  101.000000       1.63903e-10      2.15034e-10       25.000000     
                  1               
  102.000000       1.65533e-10      2.17190e-10       25.000000     
                  1               
  103.000000       1.67162e-10      2.19347e-10       25.000000     
                  1               
  104.000000       1.68789e-10      2.21505e-10       25.000000     
                  1               
  105.000000       1.70414e-10      2.23663e-10       25.000000     
                  1               
  106.000000       1.72036e-10      2.25823e-10       25.000000     
                  1               
  107.000000       1.73657e-10      2.27984e-10       25.000000     
                  1               
  108.000000       1.75275e-10      2.30146e-10       25.000000     
                  1               
  109.000000       1.76890e-10      2.32308e-10       25.000000     
                  1               
  110.000000       1.78503e-10      2.34472e-10       25.000000     
                  1               
  111.000000       1.80113e-10      2.36636e-10       25.000000     
                  1               
  112.000000       1.81719e-10      2.38802e-10       25.000000     
                  1               
  113.000000       1.83322e-10      2.40968e-10       25.000000     
                  1               
  114.000000         failed         2.43135e-10       25.000000     
                  1               
  115.000000         failed         2.45303e-10       25.000000     
                  1               
  116.000000         failed         2.47472e-10       25.000000     
                  1               
  117.000000         failed         2.49641e-10       25.000000     
                  1               
  118.000000         failed         2.51812e-10       25.000000     
                  1               
  119.000000         failed         2.53983e-10       25.000000     
                  1               
  120.000000         failed         2.56155e-10       25.000000     
                  1               
  121.000000         failed         2.58328e-10       25.000000     
                  1               
  122.000000         failed         2.60502e-10       25.000000     
                  1               
  123.000000         failed         2.62676e-10       25.000000     
                  1               
  124.000000         failed         2.64852e-10       25.000000     
                  1               
  125.000000         failed         2.67027e-10       25.000000     
                  1               
  126.000000         failed         2.69204e-10       25.000000     
                  1               
  127.000000         failed         2.71381e-10       25.000000     
                  1               
  128.000000         failed         2.73559e-10       25.000000     
                  1               
