$DATA1 SOURCE='HSPICE' VERSION='J-2014.09 64-BIT'
.TITLE 'connecting a dut inverter with f04 configuration'
 pmos_width_param delay_l_to_h     delay_h_to_l     temper          
                  alter#          
  1.00000e-07      1.12843e-11      1.43024e-11       25.000000     
                  1               
  1.00100e-07      1.12837e-11      1.42992e-11       25.000000     
                  1               
  1.00200e-07      1.12831e-11      1.42960e-11       25.000000     
                  1               
  1.00300e-07      1.12826e-11      1.42928e-11       25.000000     
                  1               
  1.00400e-07      1.12821e-11      1.42896e-11       25.000000     
                  1               
  1.00500e-07      1.12816e-11      1.42864e-11       25.000000     
                  1               
  1.00600e-07      1.12812e-11      1.42833e-11       25.000000     
                  1               
  1.00700e-07      1.12808e-11      1.42801e-11       25.000000     
                  1               
  1.00800e-07      1.12804e-11      1.42770e-11       25.000000     
                  1               
  1.00900e-07      1.12801e-11      1.42738e-11       25.000000     
                  1               
  1.01000e-07      1.12797e-11      1.42707e-11       25.000000     
                  1               
  1.01100e-07      1.12795e-11      1.42676e-11       25.000000     
                  1               
  1.01200e-07      1.12792e-11      1.42645e-11       25.000000     
                  1               
  1.01300e-07      1.12790e-11      1.42614e-11       25.000000     
                  1               
  1.01400e-07      1.12787e-11      1.42583e-11       25.000000     
                  1               
  1.01500e-07      1.12784e-11      1.42552e-11       25.000000     
                  1               
  1.01600e-07      1.12781e-11      1.42522e-11       25.000000     
                  1               
  1.01700e-07      1.12404e-11      1.42491e-11       25.000000     
                  1               
  1.01800e-07      1.12406e-11      1.42461e-11       25.000000     
                  1               
  1.01900e-07      1.12408e-11      1.42431e-11       25.000000     
                  1               
  1.02000e-07      1.12411e-11      1.42400e-11       25.000000     
                  1               
  1.02100e-07      1.12413e-11      1.42370e-11       25.000000     
                  1               
  1.02200e-07      1.12416e-11      1.42340e-11       25.000000     
                  1               
  1.02300e-07      1.12420e-11      1.42310e-11       25.000000     
                  1               
  1.02400e-07      1.12423e-11      1.42281e-11       25.000000     
                  1               
  1.02500e-07      1.12427e-11      1.42251e-11       25.000000     
                  1               
  1.02600e-07      1.12431e-11      1.42221e-11       25.000000     
                  1               
  1.02700e-07      1.12436e-11      1.42192e-11       25.000000     
                  1               
  1.02800e-07      1.12440e-11      1.42162e-11       25.000000     
                  1               
  1.02900e-07      1.12445e-11      1.42133e-11       25.000000     
                  1               
  1.03000e-07      1.12450e-11      1.42104e-11       25.000000     
                  1               
  1.03100e-07      1.12456e-11      1.42075e-11       25.000000     
                  1               
  1.03200e-07      1.12461e-11      1.42046e-11       25.000000     
                  1               
  1.03300e-07      1.12467e-11      1.42017e-11       25.000000     
                  1               
  1.03400e-07      1.12473e-11      1.41988e-11       25.000000     
                  1               
  1.03500e-07      1.12479e-11      1.41959e-11       25.000000     
                  1               
  1.03600e-07      1.12486e-11      1.41931e-11       25.000000     
                  1               
  1.03700e-07      1.12493e-11      1.41902e-11       25.000000     
                  1               
  1.03800e-07      1.12500e-11      1.41874e-11       25.000000     
                  1               
  1.03900e-07      1.12507e-11      1.41846e-11       25.000000     
                  1               
  1.04000e-07      1.12514e-11      1.41817e-11       25.000000     
                  1               
  1.04100e-07      1.12522e-11      1.41789e-11       25.000000     
                  1               
  1.04200e-07      1.12530e-11      1.41761e-11       25.000000     
                  1               
  1.04300e-07      1.12538e-11      1.41733e-11       25.000000     
                  1               
  1.04400e-07      1.12546e-11      1.41705e-11       25.000000     
                  1               
  1.04500e-07      1.12554e-11      1.41678e-11       25.000000     
                  1               
  1.04600e-07      1.12563e-11      1.41650e-11       25.000000     
                  1               
  1.04700e-07      1.12572e-11      1.41622e-11       25.000000     
                  1               
  1.04800e-07      1.12581e-11      1.41595e-11       25.000000     
                  1               
  1.04900e-07      1.12591e-11      1.41568e-11       25.000000     
                  1               
  1.05000e-07      1.12600e-11      1.41540e-11       25.000000     
                  1               
  1.05100e-07      1.12610e-11      1.41513e-11       25.000000     
                  1               
  1.05200e-07      1.12620e-11      1.41486e-11       25.000000     
                  1               
  1.05300e-07      1.12630e-11      1.41459e-11       25.000000     
                  1               
  1.05400e-07      1.12640e-11      1.41432e-11       25.000000     
                  1               
  1.05500e-07      1.12650e-11      1.41405e-11       25.000000     
                  1               
  1.05600e-07      1.12661e-11      1.41379e-11       25.000000     
                  1               
  1.05700e-07      1.12672e-11      1.41352e-11       25.000000     
                  1               
  1.05800e-07      1.12682e-11      1.41325e-11       25.000000     
                  1               
  1.05900e-07      1.12694e-11      1.41299e-11       25.000000     
                  1               
  1.06000e-07      1.12705e-11      1.41273e-11       25.000000     
                  1               
  1.06100e-07      1.12716e-11      1.41246e-11       25.000000     
                  1               
  1.06200e-07      1.12728e-11      1.41220e-11       25.000000     
                  1               
  1.06300e-07      1.12740e-11      1.41194e-11       25.000000     
                  1               
  1.06400e-07      1.12752e-11      1.41168e-11       25.000000     
                  1               
  1.06500e-07      1.12764e-11      1.41142e-11       25.000000     
                  1               
  1.06600e-07      1.12776e-11      1.41116e-11       25.000000     
                  1               
  1.06700e-07      1.12789e-11      1.41091e-11       25.000000     
                  1               
  1.06800e-07      1.12801e-11      1.41065e-11       25.000000     
                  1               
  1.06900e-07      1.12814e-11      1.41039e-11       25.000000     
                  1               
  1.07000e-07      1.12827e-11      1.41014e-11       25.000000     
                  1               
  1.07100e-07      1.12840e-11      1.40988e-11       25.000000     
                  1               
  1.07200e-07      1.12853e-11      1.40963e-11       25.000000     
                  1               
  1.07300e-07      1.12866e-11      1.40938e-11       25.000000     
                  1               
  1.07400e-07      1.12880e-11      1.40913e-11       25.000000     
                  1               
  1.07500e-07      1.12893e-11      1.40888e-11       25.000000     
                  1               
  1.07600e-07      1.12907e-11      1.40863e-11       25.000000     
                  1               
  1.07700e-07      1.12921e-11      1.40838e-11       25.000000     
                  1               
  1.07800e-07      1.12935e-11      1.40813e-11       25.000000     
                  1               
  1.07900e-07      1.12949e-11      1.40788e-11       25.000000     
                  1               
  1.08000e-07      1.12964e-11      1.40764e-11       25.000000     
                  1               
  1.08100e-07      1.12978e-11      1.40739e-11       25.000000     
                  1               
  1.08200e-07      1.12993e-11      1.40715e-11       25.000000     
                  1               
  1.08300e-07      1.13008e-11      1.40691e-11       25.000000     
                  1               
  1.08400e-07      1.13023e-11      1.40666e-11       25.000000     
                  1               
  1.08500e-07      1.13038e-11      1.40642e-11       25.000000     
                  1               
  1.08600e-07      1.13053e-11      1.40618e-11       25.000000     
                  1               
  1.08700e-07      1.13068e-11      1.40594e-11       25.000000     
                  1               
  1.08800e-07      1.13083e-11      1.40570e-11       25.000000     
                  1               
  1.08900e-07      1.13099e-11      1.40546e-11       25.000000     
                  1               
  1.09000e-07      1.13115e-11      1.40522e-11       25.000000     
                  1               
  1.09100e-07      1.13130e-11      1.40499e-11       25.000000     
                  1               
  1.09200e-07      1.13146e-11      1.40475e-11       25.000000     
                  1               
  1.09300e-07      1.13162e-11      1.40452e-11       25.000000     
                  1               
  1.09400e-07      1.13178e-11      1.40428e-11       25.000000     
                  1               
  1.09500e-07      1.13195e-11      1.40405e-11       25.000000     
                  1               
  1.09600e-07      1.13211e-11      1.40382e-11       25.000000     
                  1               
  1.09700e-07      1.13228e-11      1.40358e-11       25.000000     
                  1               
  1.09800e-07      1.13244e-11      1.40335e-11       25.000000     
                  1               
  1.09900e-07      1.13261e-11      1.40312e-11       25.000000     
                  1               
  1.10000e-07      1.13278e-11      1.40289e-11       25.000000     
                  1               
  1.10100e-07      1.13294e-11      1.40266e-11       25.000000     
                  1               
  1.10200e-07      1.13311e-11      1.40244e-11       25.000000     
                  1               
  1.10300e-07      1.13328e-11      1.40221e-11       25.000000     
                  1               
  1.10400e-07      1.13346e-11      1.40198e-11       25.000000     
                  1               
  1.10500e-07      1.13363e-11      1.40176e-11       25.000000     
                  1               
  1.10600e-07      1.13380e-11      1.40153e-11       25.000000     
                  1               
  1.10700e-07      1.13398e-11      1.40131e-11       25.000000     
                  1               
  1.10800e-07      1.13416e-11      1.40109e-11       25.000000     
                  1               
  1.10900e-07      1.13433e-11      1.40086e-11       25.000000     
                  1               
  1.11000e-07      1.13451e-11      1.40064e-11       25.000000     
                  1               
  1.11100e-07      1.13469e-11      1.40042e-11       25.000000     
                  1               
  1.11200e-07      1.13487e-11      1.40020e-11       25.000000     
                  1               
  1.11300e-07      1.13506e-11      1.39998e-11       25.000000     
                  1               
  1.11400e-07      1.13524e-11      1.39976e-11       25.000000     
                  1               
  1.11500e-07      1.13542e-11      1.39955e-11       25.000000     
                  1               
  1.11600e-07      1.13561e-11      1.39933e-11       25.000000     
                  1               
  1.11700e-07      1.13579e-11      1.39911e-11       25.000000     
                  1               
  1.11800e-07      1.13598e-11      1.39890e-11       25.000000     
                  1               
  1.11900e-07      1.13617e-11      1.39868e-11       25.000000     
                  1               
  1.12000e-07      1.13636e-11      1.39847e-11       25.000000     
                  1               
  1.12100e-07      1.13655e-11      1.39826e-11       25.000000     
                  1               
  1.12200e-07      1.13674e-11      1.39804e-11       25.000000     
                  1               
  1.12300e-07      1.13693e-11      1.39783e-11       25.000000     
                  1               
  1.12400e-07      1.13713e-11      1.39762e-11       25.000000     
                  1               
  1.12500e-07      1.13732e-11      1.39741e-11       25.000000     
                  1               
  1.12600e-07      1.13752e-11      1.39720e-11       25.000000     
                  1               
  1.12700e-07      1.13771e-11      1.39699e-11       25.000000     
                  1               
  1.12800e-07      1.13791e-11      1.39679e-11       25.000000     
                  1               
  1.12900e-07      1.13811e-11      1.39658e-11       25.000000     
                  1               
  1.13000e-07      1.13830e-11      1.39637e-11       25.000000     
                  1               
  1.13100e-07      1.13850e-11      1.39617e-11       25.000000     
                  1               
  1.13200e-07      1.13870e-11      1.39596e-11       25.000000     
                  1               
  1.13300e-07      1.13891e-11      1.39576e-11       25.000000     
                  1               
  1.13400e-07      1.13911e-11      1.39556e-11       25.000000     
                  1               
  1.13500e-07      1.13931e-11      1.39535e-11       25.000000     
                  1               
  1.13600e-07      1.13939e-11      1.39515e-11       25.000000     
                  1               
  1.13700e-07      1.13959e-11      1.39495e-11       25.000000     
                  1               
  1.13800e-07      1.13980e-11      1.39475e-11       25.000000     
                  1               
  1.13900e-07      1.14000e-11      1.39455e-11       25.000000     
                  1               
  1.14000e-07      1.14021e-11      1.39435e-11       25.000000     
                  1               
  1.14100e-07      1.14042e-11      1.39415e-11       25.000000     
                  1               
  1.14200e-07      1.14063e-11      1.39396e-11       25.000000     
                  1               
  1.14300e-07      1.14083e-11      1.39376e-11       25.000000     
                  1               
  1.14400e-07      1.14105e-11      1.39356e-11       25.000000     
                  1               
  1.14500e-07      1.14126e-11      1.39334e-11       25.000000     
                  1               
  1.14600e-07      1.14147e-11      1.39314e-11       25.000000     
                  1               
  1.14700e-07      1.14168e-11      1.39294e-11       25.000000     
                  1               
  1.14800e-07      1.14189e-11      1.39274e-11       25.000000     
                  1               
  1.14900e-07      1.14211e-11      1.39254e-11       25.000000     
                  1               
  1.15000e-07      1.14232e-11      1.39234e-11       25.000000     
                  1               
  1.15100e-07      1.14254e-11      1.39214e-11       25.000000     
                  1               
  1.15200e-07      1.14276e-11      1.39195e-11       25.000000     
                  1               
  1.15300e-07      1.14297e-11      1.39175e-11       25.000000     
                  1               
  1.15400e-07      1.14319e-11      1.39156e-11       25.000000     
                  1               
  1.15500e-07      1.14341e-11      1.39137e-11       25.000000     
                  1               
  1.15600e-07      1.14363e-11      1.39117e-11       25.000000     
                  1               
  1.15700e-07      1.14385e-11      1.39098e-11       25.000000     
                  1               
  1.15800e-07      1.14407e-11      1.39079e-11       25.000000     
                  1               
  1.15900e-07      1.14429e-11      1.39060e-11       25.000000     
                  1               
  1.16000e-07      1.14458e-11      1.39041e-11       25.000000     
                  1               
  1.16100e-07      1.14481e-11      1.39022e-11       25.000000     
                  1               
  1.16200e-07      1.14503e-11      1.39003e-11       25.000000     
                  1               
  1.16300e-07      1.14526e-11      1.38985e-11       25.000000     
                  1               
  1.16400e-07      1.14547e-11      1.38966e-11       25.000000     
                  1               
  1.16500e-07      1.14569e-11      1.38947e-11       25.000000     
                  1               
  1.16600e-07      1.14591e-11      1.38929e-11       25.000000     
                  1               
  1.16700e-07      1.14613e-11      1.38910e-11       25.000000     
                  1               
  1.16800e-07      1.14635e-11      1.38892e-11       25.000000     
                  1               
  1.16900e-07      1.14657e-11      1.38874e-11       25.000000     
                  1               
  1.17000e-07      1.14679e-11      1.38856e-11       25.000000     
                  1               
  1.17100e-07      1.14701e-11      1.38838e-11       25.000000     
                  1               
  1.17200e-07      1.14723e-11      1.38820e-11       25.000000     
                  1               
  1.17300e-07      1.14745e-11      1.38802e-11       25.000000     
                  1               
  1.17400e-07      1.14767e-11      1.38784e-11       25.000000     
                  1               
  1.17500e-07      1.14789e-11      1.38766e-11       25.000000     
                  1               
  1.17600e-07      1.14812e-11      1.38748e-11       25.000000     
                  1               
  1.17700e-07      1.14823e-11      1.38730e-11       25.000000     
                  1               
  1.17800e-07      1.14845e-11      1.38713e-11       25.000000     
                  1               
  1.17900e-07      1.14867e-11      1.38695e-11       25.000000     
                  1               
  1.18000e-07      1.14890e-11      1.38678e-11       25.000000     
                  1               
  1.18100e-07      1.14912e-11      1.38660e-11       25.000000     
                  1               
  1.18200e-07      1.14935e-11      1.38643e-11       25.000000     
                  1               
  1.18300e-07      1.14957e-11      1.38626e-11       25.000000     
                  1               
  1.18400e-07      1.14980e-11      1.38609e-11       25.000000     
                  1               
  1.18500e-07      1.15002e-11      1.38592e-11       25.000000     
                  1               
  1.18600e-07      1.15025e-11      1.38575e-11       25.000000     
                  1               
  1.18700e-07      1.15048e-11      1.38558e-11       25.000000     
                  1               
  1.18800e-07      1.15071e-11      1.38541e-11       25.000000     
                  1               
  1.18900e-07      1.15093e-11      1.38524e-11       25.000000     
                  1               
  1.19000e-07      1.15116e-11      1.38507e-11       25.000000     
                  1               
  1.19100e-07      1.15139e-11      1.38491e-11       25.000000     
                  1               
  1.19200e-07      1.15162e-11      1.38474e-11       25.000000     
                  1               
  1.19300e-07      1.15185e-11      1.38458e-11       25.000000     
                  1               
  1.19400e-07      1.15208e-11      1.38441e-11       25.000000     
                  1               
  1.19500e-07      1.15231e-11      1.38425e-11       25.000000     
                  1               
  1.19600e-07      1.15254e-11      1.38408e-11       25.000000     
                  1               
  1.19700e-07      1.15277e-11      1.38392e-11       25.000000     
                  1               
  1.19800e-07      1.15300e-11      1.38376e-11       25.000000     
                  1               
  1.19900e-07      1.15323e-11      1.38360e-11       25.000000     
                  1               
  1.20000e-07      1.15346e-11      1.38344e-11       25.000000     
                  1               
  1.20100e-07      1.15369e-11      1.38328e-11       25.000000     
                  1               
  1.20200e-07      1.15509e-11      1.38312e-11       25.000000     
                  1               
  1.20300e-07      1.15532e-11      1.38296e-11       25.000000     
                  1               
  1.20400e-07      1.15556e-11      1.38281e-11       25.000000     
                  1               
  1.20500e-07      1.15580e-11      1.38265e-11       25.000000     
                  1               
  1.20600e-07      1.15604e-11      1.38249e-11       25.000000     
                  1               
  1.20700e-07      1.15628e-11      1.38234e-11       25.000000     
                  1               
  1.20800e-07      1.15651e-11      1.38218e-11       25.000000     
                  1               
  1.20900e-07      1.15675e-11      1.38203e-11       25.000000     
                  1               
  1.21000e-07      1.15699e-11      1.38188e-11       25.000000     
                  1               
  1.21100e-07      1.15723e-11      1.38172e-11       25.000000     
                  1               
  1.21200e-07      1.15747e-11      1.38157e-11       25.000000     
                  1               
  1.21300e-07      1.15771e-11      1.38142e-11       25.000000     
                  1               
  1.21400e-07      1.15795e-11      1.38127e-11       25.000000     
                  1               
  1.21500e-07      1.15819e-11      1.38112e-11       25.000000     
                  1               
  1.21600e-07      1.15843e-11      1.38097e-11       25.000000     
                  1               
  1.21700e-07      1.15867e-11      1.38082e-11       25.000000     
                  1               
  1.21800e-07      1.15891e-11      1.38067e-11       25.000000     
                  1               
  1.21900e-07      1.15916e-11      1.38053e-11       25.000000     
                  1               
  1.22000e-07      1.15940e-11      1.38038e-11       25.000000     
                  1               
  1.22100e-07      1.15964e-11      1.38023e-11       25.000000     
                  1               
  1.22200e-07      1.15988e-11      1.38009e-11       25.000000     
                  1               
  1.22300e-07      1.16012e-11      1.37994e-11       25.000000     
                  1               
  1.22400e-07      1.16037e-11      1.37980e-11       25.000000     
                  1               
  1.22500e-07      1.16061e-11      1.37966e-11       25.000000     
                  1               
  1.22600e-07      1.16085e-11      1.37951e-11       25.000000     
                  1               
  1.22700e-07      1.16109e-11      1.37937e-11       25.000000     
                  1               
  1.22800e-07      1.16134e-11      1.37923e-11       25.000000     
                  1               
  1.22900e-07      1.16158e-11      1.37909e-11       25.000000     
                  1               
  1.23000e-07      1.16182e-11      1.37895e-11       25.000000     
                  1               
  1.23100e-07      1.16207e-11      1.37881e-11       25.000000     
                  1               
  1.23200e-07      1.16231e-11      1.37867e-11       25.000000     
                  1               
  1.23300e-07      1.16256e-11      1.37853e-11       25.000000     
                  1               
  1.23400e-07      1.16280e-11      1.37840e-11       25.000000     
                  1               
  1.23500e-07      1.16305e-11      1.37826e-11       25.000000     
                  1               
  1.23600e-07      1.16329e-11      1.37812e-11       25.000000     
                  1               
  1.23700e-07      1.16353e-11      1.37799e-11       25.000000     
                  1               
  1.23800e-07      1.16378e-11      1.37785e-11       25.000000     
                  1               
  1.23900e-07      1.16402e-11      1.37772e-11       25.000000     
                  1               
  1.24000e-07      1.16427e-11      1.37758e-11       25.000000     
                  1               
  1.24100e-07      1.16451e-11      1.37745e-11       25.000000     
                  1               
  1.24200e-07      1.16476e-11      1.37732e-11       25.000000     
                  1               
  1.24300e-07      1.16501e-11      1.37719e-11       25.000000     
                  1               
  1.24400e-07      1.16525e-11      1.37706e-11       25.000000     
                  1               
  1.24500e-07      1.16550e-11      1.37693e-11       25.000000     
                  1               
  1.24600e-07      1.16574e-11      1.37680e-11       25.000000     
                  1               
  1.24700e-07      1.16599e-11      1.37667e-11       25.000000     
                  1               
  1.24800e-07      1.16623e-11      1.37654e-11       25.000000     
                  1               
  1.24900e-07      1.16653e-11      1.37641e-11       25.000000     
                  1               
  1.25000e-07      1.16674e-11      1.37628e-11       25.000000     
                  1               
  1.25100e-07      1.16698e-11      1.37616e-11       25.000000     
                  1               
  1.25200e-07      1.16723e-11      1.37603e-11       25.000000     
                  1               
  1.25300e-07      1.16748e-11      1.37590e-11       25.000000     
                  1               
  1.25400e-07      1.16772e-11      1.37578e-11       25.000000     
                  1               
  1.25500e-07      1.16797e-11      1.37566e-11       25.000000     
                  1               
  1.25600e-07      1.16822e-11      1.37553e-11       25.000000     
                  1               
  1.25700e-07      1.16847e-11      1.37541e-11       25.000000     
                  1               
  1.25800e-07      1.16871e-11      1.37529e-11       25.000000     
                  1               
  1.25900e-07      1.16896e-11      1.37516e-11       25.000000     
                  1               
  1.26000e-07      1.16921e-11      1.37504e-11       25.000000     
                  1               
  1.26100e-07      1.16945e-11      1.37492e-11       25.000000     
                  1               
  1.26200e-07      1.16970e-11      1.37480e-11       25.000000     
                  1               
  1.26300e-07      1.16995e-11      1.37468e-11       25.000000     
                  1               
  1.26400e-07      1.17020e-11      1.37457e-11       25.000000     
                  1               
  1.26500e-07      1.17044e-11      1.37445e-11       25.000000     
                  1               
  1.26600e-07      1.17069e-11      1.37433e-11       25.000000     
                  1               
  1.26700e-07      1.17094e-11      1.37421e-11       25.000000     
                  1               
  1.26800e-07      1.17118e-11      1.37410e-11       25.000000     
                  1               
  1.26900e-07      1.17143e-11      1.37389e-11       25.000000     
                  1               
  1.27000e-07      1.17168e-11      1.37361e-11       25.000000     
                  1               
  1.27100e-07      1.17192e-11      1.37335e-11       25.000000     
                  1               
  1.27200e-07      1.17217e-11      1.37308e-11       25.000000     
                  1               
  1.27300e-07      1.17242e-11      1.37281e-11       25.000000     
                  1               
  1.27400e-07      1.17266e-11      1.37254e-11       25.000000     
                  1               
  1.27500e-07      1.17291e-11      1.37228e-11       25.000000     
                  1               
  1.27600e-07      1.17316e-11      1.37201e-11       25.000000     
                  1               
  1.27700e-07      1.17353e-11      1.37175e-11       25.000000     
                  1               
  1.27800e-07      1.17377e-11      1.37149e-11       25.000000     
                  1               
  1.27900e-07      1.17402e-11      1.37123e-11       25.000000     
                  1               
  1.28000e-07      1.17427e-11      1.37096e-11       25.000000     
                  1               
  1.28100e-07      1.17451e-11      1.37071e-11       25.000000     
                  1               
  1.28200e-07      1.17476e-11      1.37045e-11       25.000000     
                  1               
  1.28300e-07      1.17500e-11      1.37019e-11       25.000000     
                  1               
  1.28400e-07      1.17525e-11      1.36993e-11       25.000000     
                  1               
  1.28500e-07      1.17549e-11      1.36968e-11       25.000000     
                  1               
  1.28600e-07      1.17574e-11      1.36942e-11       25.000000     
                  1               
  1.28700e-07      1.17598e-11      1.36917e-11       25.000000     
                  1               
  1.28800e-07      1.17623e-11      1.36892e-11       25.000000     
                  1               
  1.28900e-07      1.17647e-11      1.36867e-11       25.000000     
                  1               
  1.29000e-07      1.17672e-11      1.36842e-11       25.000000     
                  1               
  1.29100e-07      1.17696e-11      1.36817e-11       25.000000     
                  1               
  1.29200e-07      1.17720e-11      1.36792e-11       25.000000     
                  1               
  1.29300e-07      1.17745e-11      1.36767e-11       25.000000     
                  1               
  1.29400e-07      1.17769e-11      1.36742e-11       25.000000     
                  1               
  1.29500e-07      1.17793e-11      1.36718e-11       25.000000     
                  1               
  1.29600e-07      1.17817e-11      1.36693e-11       25.000000     
                  1               
  1.29700e-07      1.17841e-11      1.36668e-11       25.000000     
                  1               
  1.29800e-07      1.17866e-11      1.36642e-11       25.000000     
                  1               
  1.29900e-07      1.17890e-11      1.36617e-11       25.000000     
                  1               
  1.30000e-07      1.17914e-11      1.36592e-11       25.000000     
                  1               
  1.30100e-07      1.17938e-11      1.36566e-11       25.000000     
                  1               
  1.30200e-07      1.17962e-11      1.36541e-11       25.000000     
                  1               
  1.30300e-07      1.17986e-11      1.36516e-11       25.000000     
                  1               
  1.30400e-07      1.18009e-11      1.36492e-11       25.000000     
                  1               
  1.30500e-07      1.18033e-11      1.36467e-11       25.000000     
                  1               
  1.30600e-07      1.18057e-11      1.36442e-11       25.000000     
                  1               
  1.30700e-07      1.18081e-11      1.36418e-11       25.000000     
                  1               
  1.30800e-07      1.18105e-11      1.36393e-11       25.000000     
                  1               
  1.30900e-07      1.18128e-11      1.36369e-11       25.000000     
                  1               
  1.31000e-07      1.18152e-11      1.36345e-11       25.000000     
                  1               
  1.31100e-07      1.18175e-11      1.36320e-11       25.000000     
                  1               
  1.31200e-07      1.18199e-11      1.36296e-11       25.000000     
                  1               
  1.31300e-07      1.18222e-11      1.36272e-11       25.000000     
                  1               
  1.31400e-07      1.18246e-11      1.36249e-11       25.000000     
                  1               
  1.31500e-07      1.18269e-11      1.36225e-11       25.000000     
                  1               
  1.31600e-07      1.18292e-11      1.36201e-11       25.000000     
                  1               
  1.31700e-07      1.18315e-11      1.36178e-11       25.000000     
                  1               
  1.31800e-07      1.18338e-11      1.36154e-11       25.000000     
                  1               
  1.31900e-07      1.18361e-11      1.36131e-11       25.000000     
                  1               
  1.32000e-07      1.18384e-11      1.36108e-11       25.000000     
                  1               
  1.32100e-07      1.18407e-11      1.36085e-11       25.000000     
                  1               
  1.32200e-07      1.18430e-11      1.36062e-11       25.000000     
                  1               
  1.32300e-07      1.18453e-11      1.36039e-11       25.000000     
                  1               
  1.32400e-07      1.18476e-11      1.36016e-11       25.000000     
                  1               
  1.32500e-07      1.18498e-11      1.35993e-11       25.000000     
                  1               
  1.32600e-07      1.18521e-11      1.35971e-11       25.000000     
                  1               
  1.32700e-07      1.18543e-11      1.35949e-11       25.000000     
                  1               
  1.32800e-07      1.18566e-11      1.35926e-11       25.000000     
                  1               
  1.32900e-07      1.18588e-11      1.35904e-11       25.000000     
                  1               
  1.33000e-07      1.18610e-11      1.35882e-11       25.000000     
                  1               
  1.33100e-07      1.18632e-11      1.35860e-11       25.000000     
                  1               
  1.33200e-07      1.18654e-11      1.35838e-11       25.000000     
                  1               
  1.33300e-07      1.18690e-11      1.35816e-11       25.000000     
                  1               
  1.33400e-07      1.18741e-11      1.35794e-11       25.000000     
                  1               
  1.33500e-07      1.18793e-11      1.35773e-11       25.000000     
                  1               
  1.33600e-07      1.18845e-11      1.35751e-11       25.000000     
                  1               
  1.33700e-07      1.18898e-11      1.35730e-11       25.000000     
                  1               
  1.33800e-07      1.18950e-11      1.35708e-11       25.000000     
                  1               
  1.33900e-07      1.19003e-11      1.35687e-11       25.000000     
                  1               
  1.34000e-07      1.19056e-11      1.35666e-11       25.000000     
                  1               
  1.34100e-07      1.19109e-11      1.35645e-11       25.000000     
                  1               
  1.34200e-07      1.19162e-11      1.35624e-11       25.000000     
                  1               
  1.34300e-07      1.19216e-11      1.35603e-11       25.000000     
                  1               
  1.34400e-07      1.19270e-11      1.35583e-11       25.000000     
                  1               
  1.34500e-07      1.19324e-11      1.35562e-11       25.000000     
                  1               
  1.34600e-07      1.19378e-11      1.35541e-11       25.000000     
                  1               
  1.34700e-07      1.19433e-11      1.35521e-11       25.000000     
                  1               
  1.34800e-07      1.19488e-11      1.35501e-11       25.000000     
                  1               
  1.34900e-07      1.19543e-11      1.35480e-11       25.000000     
                  1               
  1.35000e-07      1.19598e-11      1.35460e-11       25.000000     
                  1               
  1.35100e-07      1.19653e-11      1.35440e-11       25.000000     
                  1               
  1.35200e-07      1.19709e-11      1.35420e-11       25.000000     
                  1               
  1.35300e-07      1.19765e-11      1.35400e-11       25.000000     
                  1               
  1.35400e-07      1.19822e-11      1.35381e-11       25.000000     
                  1               
  1.35500e-07      1.19878e-11      1.35361e-11       25.000000     
                  1               
  1.35600e-07      1.19935e-11      1.35341e-11       25.000000     
                  1               
  1.35700e-07      1.19992e-11      1.35322e-11       25.000000     
                  1               
  1.35800e-07      1.20049e-11      1.35302e-11       25.000000     
                  1               
  1.35900e-07      1.20107e-11      1.35283e-11       25.000000     
                  1               
  1.36000e-07      1.20165e-11      1.35264e-11       25.000000     
                  1               
  1.36100e-07      1.20223e-11      1.35245e-11       25.000000     
                  1               
  1.36200e-07      1.20282e-11      1.35226e-11       25.000000     
                  1               
  1.36300e-07      1.20340e-11      1.35207e-11       25.000000     
                  1               
  1.36400e-07      1.20399e-11      1.35188e-11       25.000000     
                  1               
  1.36500e-07      1.20459e-11      1.35169e-11       25.000000     
                  1               
  1.36600e-07      1.20518e-11      1.35151e-11       25.000000     
                  1               
  1.36700e-07      1.20578e-11      1.35132e-11       25.000000     
                  1               
  1.36800e-07      1.20639e-11      1.35114e-11       25.000000     
                  1               
  1.36900e-07      1.20699e-11      1.35096e-11       25.000000     
                  1               
  1.37000e-07      1.20760e-11      1.35077e-11       25.000000     
                  1               
  1.37100e-07      1.20821e-11      1.35059e-11       25.000000     
                  1               
  1.37200e-07      1.20882e-11      1.35041e-11       25.000000     
                  1               
  1.37300e-07      1.20944e-11      1.35023e-11       25.000000     
                  1               
  1.37400e-07      1.21006e-11      1.35005e-11       25.000000     
                  1               
  1.37500e-07      1.21069e-11      1.34987e-11       25.000000     
                  1               
  1.37600e-07      1.21131e-11      1.34970e-11       25.000000     
                  1               
  1.37700e-07      1.21195e-11      1.34952e-11       25.000000     
                  1               
  1.37800e-07      1.21258e-11      1.34935e-11       25.000000     
                  1               
  1.37900e-07      1.21322e-11      1.34917e-11       25.000000     
                  1               
  1.38000e-07      1.21386e-11      1.34900e-11       25.000000     
                  1               
  1.38100e-07      1.21450e-11      1.34883e-11       25.000000     
                  1               
  1.38200e-07      1.21515e-11      1.34865e-11       25.000000     
                  1               
  1.38300e-07      1.21590e-11      1.34840e-11       25.000000     
                  1               
  1.38400e-07      1.21666e-11      1.34814e-11       25.000000     
                  1               
  1.38500e-07      1.21743e-11      1.34787e-11       25.000000     
                  1               
  1.38600e-07      1.21820e-11      1.34761e-11       25.000000     
                  1               
  1.38700e-07      1.21898e-11      1.34735e-11       25.000000     
                  1               
  1.38800e-07      1.21977e-11      1.34710e-11       25.000000     
                  1               
  1.38900e-07      1.22057e-11      1.34684e-11       25.000000     
                  1               
  1.39000e-07      1.22137e-11      1.34658e-11       25.000000     
                  1               
  1.39100e-07      1.22217e-11      1.34633e-11       25.000000     
                  1               
  1.39200e-07      1.22299e-11      1.34608e-11       25.000000     
                  1               
  1.39300e-07      1.22381e-11      1.34583e-11       25.000000     
                  1               
  1.39400e-07      1.22464e-11      1.34558e-11       25.000000     
                  1               
  1.39500e-07      1.22547e-11      1.34533e-11       25.000000     
                  1               
  1.39600e-07      1.22632e-11      1.34508e-11       25.000000     
                  1               
  1.39700e-07      1.22717e-11      1.34483e-11       25.000000     
                  1               
  1.39800e-07      1.22803e-11      1.34459e-11       25.000000     
                  1               
  1.39900e-07      1.22889e-11      1.34434e-11       25.000000     
                  1               
  1.40000e-07      1.22977e-11      1.34410e-11       25.000000     
                  1               
  1.40100e-07      1.23065e-11      1.34386e-11       25.000000     
                  1               
  1.40200e-07      1.23154e-11      1.34362e-11       25.000000     
                  1               
  1.40300e-07      1.23244e-11      1.34338e-11       25.000000     
                  1               
  1.40400e-07      1.23368e-11      1.34314e-11       25.000000     
                  1               
  1.40500e-07      1.23500e-11      1.34290e-11       25.000000     
                  1               
  1.40600e-07      1.23630e-11      1.34267e-11       25.000000     
                  1               
  1.40700e-07      1.23763e-11      1.34243e-11       25.000000     
                  1               
  1.40800e-07      1.23898e-11      1.34220e-11       25.000000     
                  1               
  1.40900e-07      1.24036e-11      1.34197e-11       25.000000     
                  1               
  1.41000e-07      1.24177e-11      1.34174e-11       25.000000     
                  1               
  1.41100e-07      1.24320e-11      1.34151e-11       25.000000     
                  1               
  1.41200e-07      1.24466e-11      1.34128e-11       25.000000     
                  1               
  1.41300e-07      1.24615e-11      1.34105e-11       25.000000     
                  1               
  1.41400e-07      1.24767e-11      1.34083e-11       25.000000     
                  1               
  1.41500e-07      1.24923e-11      1.34060e-11       25.000000     
                  1               
  1.41600e-07      1.25081e-11      1.34038e-11       25.000000     
                  1               
  1.41700e-07      1.25244e-11      1.34016e-11       25.000000     
                  1               
  1.41800e-07      1.25410e-11      1.33994e-11       25.000000     
                  1               
  1.41900e-07      1.25580e-11      1.33972e-11       25.000000     
                  1               
  1.42000e-07      1.25755e-11      1.33950e-11       25.000000     
                  1               
  1.42100e-07      1.25933e-11      1.33928e-11       25.000000     
                  1               
  1.42200e-07      1.20651e-11      1.33907e-11       25.000000     
                  1               
  1.42300e-07      1.20671e-11      1.33885e-11       25.000000     
                  1               
  1.42400e-07      1.20692e-11      1.33864e-11       25.000000     
                  1               
  1.42500e-07      1.20712e-11      1.33842e-11       25.000000     
                  1               
  1.42600e-07      1.20733e-11      1.33821e-11       25.000000     
                  1               
  1.42700e-07      1.20753e-11      1.33800e-11       25.000000     
                  1               
  1.42800e-07      1.20774e-11      1.33779e-11       25.000000     
                  1               
  1.42900e-07      1.20794e-11      1.33759e-11       25.000000     
                  1               
  1.43000e-07      1.20815e-11      1.33737e-11       25.000000     
                  1               
  1.43100e-07      1.20836e-11      1.33717e-11       25.000000     
                  1               
  1.43200e-07      1.20857e-11      1.33696e-11       25.000000     
                  1               
  1.43300e-07      1.20878e-11      1.33676e-11       25.000000     
                  1               
  1.43400e-07      1.20899e-11      1.33656e-11       25.000000     
                  1               
  1.43500e-07      1.20919e-11      1.33635e-11       25.000000     
                  1               
  1.43600e-07      1.20940e-11      1.33616e-11       25.000000     
                  1               
  1.43700e-07      1.20961e-11      1.33596e-11       25.000000     
                  1               
  1.43800e-07      1.20983e-11      1.33576e-11       25.000000     
                  1               
  1.43900e-07      1.20735e-11      1.33556e-11       25.000000     
                  1               
  1.44000e-07      1.20716e-11      1.33537e-11       25.000000     
                  1               
  1.44100e-07      1.20701e-11      1.33517e-11       25.000000     
                  1               
  1.44200e-07      1.20690e-11      1.33498e-11       25.000000     
                  1               
  1.44300e-07      1.20680e-11      1.33479e-11       25.000000     
                  1               
  1.44400e-07      1.20673e-11      1.33460e-11       25.000000     
                  1               
  1.44500e-07      1.20668e-11      1.33441e-11       25.000000     
                  1               
  1.44600e-07      1.20666e-11      1.33422e-11       25.000000     
                  1               
  1.44700e-07      1.20666e-11      1.33404e-11       25.000000     
                  1               
  1.44800e-07      1.20667e-11      1.33385e-11       25.000000     
                  1               
  1.44900e-07      1.20671e-11      1.33366e-11       25.000000     
                  1               
  1.45000e-07      1.20676e-11      1.33348e-11       25.000000     
                  1               
  1.45100e-07      1.20683e-11      1.33329e-11       25.000000     
                  1               
  1.45200e-07      1.20692e-11      1.33311e-11       25.000000     
                  1               
  1.45300e-07      1.20702e-11      1.33293e-11       25.000000     
                  1               
  1.45400e-07      1.20714e-11      1.33275e-11       25.000000     
                  1               
  1.45500e-07      1.20727e-11      1.33258e-11       25.000000     
                  1               
  1.45600e-07      1.20741e-11      1.33240e-11       25.000000     
                  1               
  1.45700e-07      1.20757e-11      1.33222e-11       25.000000     
                  1               
  1.45800e-07      1.20773e-11      1.33205e-11       25.000000     
                  1               
  1.45900e-07      1.20791e-11      1.33188e-11       25.000000     
                  1               
  1.46000e-07      1.20810e-11      1.33170e-11       25.000000     
                  1               
  1.46100e-07      1.20829e-11      1.33153e-11       25.000000     
                  1               
  1.46200e-07      1.20850e-11      1.33136e-11       25.000000     
                  1               
  1.46300e-07      1.20870e-11      1.33119e-11       25.000000     
                  1               
  1.46400e-07      1.20892e-11      1.33103e-11       25.000000     
                  1               
  1.46500e-07      1.20914e-11      1.33086e-11       25.000000     
                  1               
  1.46600e-07      1.20936e-11      1.33069e-11       25.000000     
                  1               
  1.46700e-07      1.20959e-11      1.33053e-11       25.000000     
                  1               
  1.46800e-07      1.20982e-11      1.33036e-11       25.000000     
                  1               
  1.46900e-07      1.20701e-11      1.33020e-11       25.000000     
                  1               
  1.47000e-07      1.20731e-11      1.33004e-11       25.000000     
                  1               
  1.47100e-07      1.20761e-11      1.32988e-11       25.000000     
                  1               
  1.47200e-07      1.20791e-11      1.32972e-11       25.000000     
                  1               
  1.47300e-07      1.20822e-11      1.32956e-11       25.000000     
                  1               
  1.47400e-07      1.20852e-11      1.32941e-11       25.000000     
                  1               
  1.47500e-07      1.20883e-11      1.32925e-11       25.000000     
                  1               
  1.47600e-07      1.20914e-11      1.32910e-11       25.000000     
                  1               
  1.47700e-07      1.20943e-11      1.32894e-11       25.000000     
                  1               
  1.47800e-07      1.20974e-11      1.32879e-11       25.000000     
                  1               
  1.47900e-07      1.21005e-11      1.32864e-11       25.000000     
                  1               
  1.48000e-07      1.21036e-11      1.32849e-11       25.000000     
                  1               
  1.48100e-07      1.21068e-11      1.32834e-11       25.000000     
                  1               
  1.48200e-07      1.21099e-11      1.32819e-11       25.000000     
                  1               
  1.48300e-07      1.21130e-11      1.32805e-11       25.000000     
                  1               
  1.48400e-07      1.21162e-11      1.32790e-11       25.000000     
                  1               
  1.48500e-07      1.21193e-11      1.32776e-11       25.000000     
                  1               
  1.48600e-07      1.21224e-11      1.32761e-11       25.000000     
                  1               
  1.48700e-07      1.21255e-11      1.32747e-11       25.000000     
                  1               
  1.48800e-07      1.21286e-11      1.32733e-11       25.000000     
                  1               
  1.48900e-07      1.21316e-11      1.32719e-11       25.000000     
                  1               
  1.49000e-07      1.21347e-11      1.32705e-11       25.000000     
                  1               
  1.49100e-07      1.21377e-11      1.32691e-11       25.000000     
                  1               
  1.49200e-07      1.21407e-11      1.32677e-11       25.000000     
                  1               
  1.49300e-07      1.21436e-11      1.32664e-11       25.000000     
                  1               
  1.49400e-07      1.21465e-11      1.32650e-11       25.000000     
                  1               
  1.49500e-07      1.21494e-11      1.32637e-11       25.000000     
                  1               
  1.49600e-07      1.21522e-11      1.32624e-11       25.000000     
                  1               
  1.49700e-07      1.21550e-11      1.32611e-11       25.000000     
                  1               
  1.49800e-07      1.21577e-11      1.32597e-11       25.000000     
                  1               
  1.49900e-07      1.21604e-11      1.32585e-11       25.000000     
                  1               
  1.50000e-07      1.21630e-11      1.32572e-11       25.000000     
                  1               
  1.50100e-07      1.21656e-11      1.32559e-11       25.000000     
                  1               
  1.50200e-07      1.21681e-11      1.32546e-11       25.000000     
                  1               
  1.50300e-07      1.21705e-11      1.32534e-11       25.000000     
                  1               
  1.50400e-07      1.21728e-11      1.32521e-11       25.000000     
                  1               
  1.50500e-07      1.21751e-11      1.32509e-11       25.000000     
                  1               
  1.50600e-07      1.21773e-11      1.32497e-11       25.000000     
                  1               
  1.50700e-07      1.21794e-11      1.32485e-11       25.000000     
                  1               
  1.50800e-07      1.21814e-11      1.32473e-11       25.000000     
                  1               
  1.50900e-07      1.21834e-11      1.32461e-11       25.000000     
                  1               
  1.51000e-07      1.21853e-11      1.32449e-11       25.000000     
                  1               
  1.51100e-07      1.21870e-11      1.32438e-11       25.000000     
                  1               
  1.51200e-07      1.21886e-11      1.32426e-11       25.000000     
                  1               
  1.51300e-07      1.21901e-11      1.32414e-11       25.000000     
                  1               
  1.51400e-07      1.21914e-11      1.32403e-11       25.000000     
                  1               
  1.51500e-07      1.21927e-11      1.32392e-11       25.000000     
                  1               
  1.51600e-07      1.21941e-11      1.32381e-11       25.000000     
                  1               
  1.51700e-07      1.21956e-11      1.32370e-11       25.000000     
                  1               
  1.51800e-07      1.21971e-11      1.32359e-11       25.000000     
                  1               
  1.51900e-07      1.21986e-11      1.32348e-11       25.000000     
                  1               
  1.52000e-07      1.21999e-11      1.32337e-11       25.000000     
                  1               
  1.52100e-07      1.22012e-11      1.32327e-11       25.000000     
                  1               
  1.52200e-07      1.22025e-11      1.32316e-11       25.000000     
                  1               
  1.52300e-07      1.22036e-11      1.32306e-11       25.000000     
                  1               
  1.52400e-07      1.22045e-11      1.32296e-11       25.000000     
                  1               
  1.52500e-07      1.22050e-11      1.32285e-11       25.000000     
                  1               
  1.52600e-07      1.22056e-11      1.32275e-11       25.000000     
                  1               
  1.52700e-07      1.22061e-11      1.32372e-11       25.000000     
                  1               
  1.52800e-07      1.22065e-11      1.32363e-11       25.000000     
                  1               
  1.52900e-07      1.22068e-11      1.32353e-11       25.000000     
                  1               
  1.53000e-07      1.22071e-11      1.32344e-11       25.000000     
                  1               
  1.53100e-07      1.22072e-11      1.32334e-11       25.000000     
                  1               
  1.53200e-07      1.22073e-11      1.32325e-11       25.000000     
                  1               
  1.53300e-07      1.22074e-11      1.32316e-11       25.000000     
                  1               
  1.53400e-07      1.22073e-11      1.32307e-11       25.000000     
                  1               
  1.53500e-07      1.22073e-11      1.32298e-11       25.000000     
                  1               
  1.53600e-07      1.22073e-11      1.32290e-11       25.000000     
                  1               
  1.53700e-07      1.22071e-11      1.32281e-11       25.000000     
                  1               
  1.53800e-07      1.22069e-11      1.32272e-11       25.000000     
                  1               
  1.53900e-07      1.22066e-11      1.32264e-11       25.000000     
                  1               
  1.54000e-07      1.22359e-11      1.32256e-11       25.000000     
                  1               
  1.54100e-07      1.22363e-11      1.32248e-11       25.000000     
                  1               
  1.54200e-07      1.22365e-11      1.32240e-11       25.000000     
                  1               
  1.54300e-07      1.22368e-11      1.32232e-11       25.000000     
                  1               
  1.54400e-07      1.22372e-11      1.32224e-11       25.000000     
                  1               
  1.54500e-07      1.22377e-11      1.32216e-11       25.000000     
                  1               
  1.54600e-07      1.25155e-11      1.32208e-11       25.000000     
                  1               
  1.54700e-07      1.24434e-11      1.32201e-11       25.000000     
                  1               
  1.54800e-07      1.23223e-11      1.32194e-11       25.000000     
                  1               
  1.54900e-07      1.23255e-11      1.32186e-11       25.000000     
                  1               
  1.55000e-07      1.23286e-11      1.32179e-11       25.000000     
                  1               
  1.55100e-07      1.23318e-11      1.32172e-11       25.000000     
                  1               
  1.55200e-07      1.23351e-11      1.32165e-11       25.000000     
                  1               
  1.55300e-07      1.23383e-11      1.32159e-11       25.000000     
                  1               
  1.55400e-07      1.23416e-11      1.32152e-11       25.000000     
                  1               
  1.55500e-07      1.23449e-11      1.32145e-11       25.000000     
                  1               
  1.55600e-07      1.23482e-11      1.32139e-11       25.000000     
                  1               
  1.55700e-07      1.23516e-11      1.32133e-11       25.000000     
                  1               
  1.55800e-07      1.27738e-11      1.34977e-11       25.000000     
                  1               
  1.55900e-07      1.27767e-11      1.34975e-11       25.000000     
                  1               
  1.56000e-07      1.27797e-11      1.34973e-11       25.000000     
                  1               
  1.56100e-07      1.27829e-11      1.34971e-11       25.000000     
                  1               
  1.56200e-07      1.27862e-11      1.34969e-11       25.000000     
                  1               
  1.56300e-07      1.27896e-11      1.34967e-11       25.000000     
                  1               
  1.56400e-07      1.27931e-11      1.34965e-11       25.000000     
                  1               
  1.56500e-07      1.27967e-11      1.34963e-11       25.000000     
                  1               
  1.56600e-07      1.28004e-11      1.34961e-11       25.000000     
                  1               
  1.56700e-07      1.28042e-11      1.34959e-11       25.000000     
                  1               
  1.56800e-07      1.28080e-11      1.34957e-11       25.000000     
                  1               
  1.56900e-07      1.28776e-11      1.34271e-11       25.000000     
                  1               
  1.57000e-07      1.28800e-11      1.34264e-11       25.000000     
                  1               
  1.57100e-07      1.28823e-11      1.34257e-11       25.000000     
                  1               
  1.57200e-07      1.28847e-11      1.34250e-11       25.000000     
                  1               
  1.57300e-07      1.28872e-11      1.34243e-11       25.000000     
                  1               
  1.57400e-07      1.28896e-11      1.34235e-11       25.000000     
                  1               
  1.57500e-07      1.28921e-11      1.34228e-11       25.000000     
                  1               
  1.57600e-07      1.28946e-11      1.34221e-11       25.000000     
                  1               
  1.57700e-07      1.28971e-11      1.34214e-11       25.000000     
                  1               
  1.57800e-07      1.28996e-11      1.34207e-11       25.000000     
                  1               
  1.57900e-07      1.29022e-11      1.34200e-11       25.000000     
                  1               
  1.58000e-07      1.29048e-11      1.34193e-11       25.000000     
                  1               
  1.58100e-07      1.29074e-11      1.34186e-11       25.000000     
                  1               
  1.58200e-07      1.29100e-11      1.34179e-11       25.000000     
                  1               
  1.58300e-07      1.29119e-11      1.34172e-11       25.000000     
                  1               
  1.58400e-07      1.29134e-11      1.34165e-11       25.000000     
                  1               
  1.58500e-07      1.29149e-11      1.34158e-11       25.000000     
                  1               
  1.58600e-07      1.29164e-11      1.34151e-11       25.000000     
                  1               
  1.58700e-07      1.29179e-11      1.34144e-11       25.000000     
                  1               
  1.58800e-07      1.29193e-11      1.34143e-11       25.000000     
                  1               
  1.58900e-07      1.29208e-11      1.34136e-11       25.000000     
                  1               
  1.59000e-07      1.29223e-11      1.34129e-11       25.000000     
                  1               
  1.59100e-07      1.29238e-11      1.34122e-11       25.000000     
                  1               
  1.59200e-07      1.29253e-11      1.34116e-11       25.000000     
                  1               
  1.59300e-07      1.29269e-11      1.34109e-11       25.000000     
                  1               
  1.59400e-07      1.29284e-11      1.34102e-11       25.000000     
                  1               
  1.59500e-07      1.29299e-11      1.34095e-11       25.000000     
                  1               
  1.59600e-07      1.29314e-11      1.34088e-11       25.000000     
                  1               
  1.59700e-07      1.29329e-11      1.34081e-11       25.000000     
                  1               
  1.59800e-07      1.29345e-11      1.34075e-11       25.000000     
                  1               
  1.59900e-07      1.29360e-11      1.34068e-11       25.000000     
                  1               
  1.60000e-07      1.29375e-11      1.34061e-11       25.000000     
                  1               
  1.60100e-07      1.29391e-11      1.34054e-11       25.000000     
                  1               
  1.60200e-07      1.29406e-11      1.34048e-11       25.000000     
                  1               
  1.60300e-07      1.29422e-11      1.34041e-11       25.000000     
                  1               
  1.60400e-07      1.29437e-11      1.34034e-11       25.000000     
                  1               
  1.60500e-07      1.29452e-11      1.34027e-11       25.000000     
                  1               
  1.60600e-07      1.29465e-11      1.34020e-11       25.000000     
                  1               
  1.60700e-07      1.29477e-11      1.34014e-11       25.000000     
                  1               
  1.60800e-07      1.29490e-11      1.34007e-11       25.000000     
                  1               
  1.60900e-07      1.29502e-11      1.34000e-11       25.000000     
                  1               
  1.61000e-07      1.29516e-11      1.33994e-11       25.000000     
                  1               
  1.61100e-07      1.29529e-11      1.33987e-11       25.000000     
                  1               
  1.61200e-07      1.29542e-11      1.33980e-11       25.000000     
                  1               
  1.61300e-07      1.29555e-11      1.33973e-11       25.000000     
                  1               
  1.61400e-07      1.29568e-11      1.33967e-11       25.000000     
                  1               
  1.61500e-07      1.29581e-11      1.33960e-11       25.000000     
                  1               
  1.61600e-07      1.29594e-11      1.33953e-11       25.000000     
                  1               
  1.61700e-07      1.29607e-11      1.33946e-11       25.000000     
                  1               
  1.61800e-07      1.24870e-11      1.33940e-11       25.000000     
                  1               
  1.61900e-07      1.25007e-11      1.33933e-11       25.000000     
                  1               
  1.62000e-07      1.25179e-11      1.33926e-11       25.000000     
                  1               
  1.62100e-07      1.25026e-11      1.33919e-11       25.000000     
                  1               
  1.62200e-07      1.25754e-11      1.33913e-11       25.000000     
                  1               
  1.62300e-07      1.26126e-11      1.33906e-11       25.000000     
                  1               
  1.62400e-07      1.24410e-11      1.33899e-11       25.000000     
                  1               
  1.62500e-07      1.24553e-11      1.33893e-11       25.000000     
                  1               
  1.62600e-07      1.24691e-11      1.33886e-11       25.000000     
                  1               
  1.62700e-07      1.24826e-11      1.33879e-11       25.000000     
                  1               
  1.62800e-07      1.24967e-11      1.33872e-11       25.000000     
                  1               
  1.62900e-07      1.25111e-11      1.33866e-11       25.000000     
                  1               
  1.63000e-07      1.25258e-11      1.33859e-11       25.000000     
                  1               
  1.63100e-07      1.25409e-11      1.33852e-11       25.000000     
                  1               
  1.63200e-07      1.25563e-11      1.33845e-11       25.000000     
                  1               
  1.63300e-07      1.25724e-11      1.33838e-11       25.000000     
                  1               
  1.63400e-07      1.25884e-11      1.33832e-11       25.000000     
                  1               
  1.63500e-07      1.26044e-11      1.33825e-11       25.000000     
                  1               
  1.63600e-07      1.26197e-11      1.33818e-11       25.000000     
                  1               
  1.63700e-07      1.26350e-11      1.33811e-11       25.000000     
                  1               
  1.63800e-07      1.26495e-11      1.33805e-11       25.000000     
                  1               
  1.63900e-07      1.26619e-11      1.33798e-11       25.000000     
                  1               
  1.64000e-07      1.26721e-11      1.33791e-11       25.000000     
                  1               
  1.64100e-07      1.26801e-11      1.33784e-11       25.000000     
                  1               
  1.64200e-07      1.26868e-11      1.33777e-11       25.000000     
                  1               
  1.64300e-07      1.26922e-11      1.33770e-11       25.000000     
                  1               
  1.64400e-07      1.26960e-11      1.33764e-11       25.000000     
                  1               
  1.64500e-07      1.26978e-11      1.33757e-11       25.000000     
                  1               
  1.64600e-07      1.26971e-11      1.33750e-11       25.000000     
                  1               
  1.64700e-07      1.26930e-11      1.33743e-11       25.000000     
                  1               
  1.64800e-07      1.26800e-11      1.33736e-11       25.000000     
                  1               
  1.64900e-07      1.26552e-11      1.33729e-11       25.000000     
                  1               
  1.65000e-07      1.26136e-11      1.33722e-11       25.000000     
                  1               
  1.65100e-07      1.25632e-11      1.33715e-11       25.000000     
                  1               
  1.65200e-07      1.24868e-11      1.33708e-11       25.000000     
                  1               
  1.65300e-07      1.27630e-11      1.33701e-11       25.000000     
                  1               
  1.65400e-07      1.27932e-11      1.33694e-11       25.000000     
                  1               
  1.65500e-07      1.28306e-11      1.33687e-11       25.000000     
                  1               
  1.65600e-07      1.28480e-11      1.33680e-11       25.000000     
                  1               
  1.65700e-07      1.28293e-11      1.33673e-11       25.000000     
                  1               
  1.65800e-07      1.27966e-11      1.33666e-11       25.000000     
                  1               
  1.65900e-07      1.30068e-11      1.33659e-11       25.000000     
                  1               
  1.66000e-07      1.30095e-11      1.33652e-11       25.000000     
                  1               
  1.66100e-07      1.30122e-11      1.33645e-11       25.000000     
                  1               
  1.66200e-07      1.30149e-11      1.33638e-11       25.000000     
                  1               
  1.66300e-07      1.30176e-11      1.33631e-11       25.000000     
                  1               
  1.66400e-07      1.30203e-11      1.33623e-11       25.000000     
                  1               
  1.66500e-07      1.30230e-11      1.33614e-11       25.000000     
                  1               
  1.66600e-07      1.30257e-11      1.33601e-11       25.000000     
                  1               
  1.66700e-07      1.30284e-11      1.33588e-11       25.000000     
                  1               
  1.66800e-07      1.30311e-11      1.33575e-11       25.000000     
                  1               
  1.66900e-07      1.30338e-11      1.33562e-11       25.000000     
                  1               
  1.67000e-07      1.30365e-11      1.33550e-11       25.000000     
                  1               
  1.67100e-07      1.30391e-11      1.33537e-11       25.000000     
                  1               
  1.67200e-07      1.30416e-11      1.33522e-11       25.000000     
                  1               
  1.67300e-07      1.30440e-11      1.33508e-11       25.000000     
                  1               
  1.67400e-07      1.30464e-11      1.33493e-11       25.000000     
                  1               
  1.67500e-07      1.30489e-11      1.33479e-11       25.000000     
                  1               
  1.67600e-07      1.30513e-11      1.33465e-11       25.000000     
                  1               
  1.67700e-07      1.30538e-11      1.33451e-11       25.000000     
                  1               
  1.67800e-07      1.30562e-11      1.33437e-11       25.000000     
                  1               
  1.67900e-07      1.30587e-11      1.33423e-11       25.000000     
                  1               
  1.68000e-07      1.30612e-11      1.33410e-11       25.000000     
                  1               
  1.68100e-07      1.30636e-11      1.33396e-11       25.000000     
                  1               
  1.68200e-07      1.30661e-11      1.33382e-11       25.000000     
                  1               
  1.68300e-07      1.30686e-11      1.33369e-11       25.000000     
                  1               
  1.68400e-07      1.30711e-11      1.33356e-11       25.000000     
                  1               
  1.68500e-07      1.30736e-11      1.33343e-11       25.000000     
                  1               
  1.68600e-07      1.30761e-11      1.33329e-11       25.000000     
                  1               
  1.68700e-07      1.30788e-11      1.33315e-11       25.000000     
                  1               
  1.68800e-07      1.30813e-11      1.33302e-11       25.000000     
                  1               
  1.68900e-07      1.30839e-11      1.33290e-11       25.000000     
                  1               
  1.69000e-07      1.30864e-11      1.33277e-11       25.000000     
                  1               
  1.69100e-07      1.30889e-11      1.33264e-11       25.000000     
                  1               
  1.69200e-07      1.30914e-11      1.33252e-11       25.000000     
                  1               
  1.69300e-07      1.30940e-11      1.33239e-11       25.000000     
                  1               
  1.69400e-07      1.30965e-11      1.33227e-11       25.000000     
                  1               
  1.69500e-07      1.30991e-11      1.33215e-11       25.000000     
                  1               
  1.69600e-07      1.31016e-11      1.33203e-11       25.000000     
                  1               
  1.69700e-07      1.31042e-11      1.33191e-11       25.000000     
                  1               
  1.69800e-07      1.31065e-11      1.33180e-11       25.000000     
                  1               
  1.69900e-07      1.31090e-11      1.33168e-11       25.000000     
                  1               
  1.70000e-07      1.31116e-11      1.33156e-11       25.000000     
                  1               
  1.70100e-07      1.31138e-11      1.33132e-11       25.000000     
                  1               
  1.70200e-07      1.31159e-11      1.33104e-11       25.000000     
                  1               
  1.70300e-07      1.31181e-11      1.33076e-11       25.000000     
                  1               
  1.70400e-07      1.31203e-11      1.33048e-11       25.000000     
                  1               
  1.70500e-07      1.31225e-11      1.33020e-11       25.000000     
                  1               
  1.70600e-07      1.31247e-11      1.32992e-11       25.000000     
                  1               
  1.70700e-07      1.29105e-11      1.32965e-11       25.000000     
                  1               
  1.70800e-07      1.29417e-11      1.32937e-11       25.000000     
                  1               
  1.70900e-07      1.29572e-11      1.32910e-11       25.000000     
                  1               
  1.71000e-07      1.29864e-11      1.32883e-11       25.000000     
                  1               
  1.71100e-07      1.26451e-11      1.32857e-11       25.000000     
                  1               
  1.71200e-07      1.27488e-11      1.32830e-11       25.000000     
                  1               
  1.71300e-07      1.28205e-11      1.32804e-11       25.000000     
                  1               
  1.71400e-07      1.28761e-11      1.32778e-11       25.000000     
                  1               
  1.71500e-07      1.29064e-11      1.32753e-11       25.000000     
                  1               
  1.71600e-07      1.29213e-11      1.32719e-11       25.000000     
                  1               
  1.71700e-07      1.29304e-11      1.32694e-11       25.000000     
                  1               
  1.71800e-07      1.29555e-11      1.32669e-11       25.000000     
                  1               
  1.71900e-07      1.30003e-11      1.32644e-11       25.000000     
                  1               
  1.72000e-07      1.30094e-11      1.32620e-11       25.000000     
                  1               
  1.72100e-07      1.30159e-11      1.32595e-11       25.000000     
                  1               
  1.72200e-07      1.30204e-11      1.32571e-11       25.000000     
                  1               
  1.72300e-07      1.30237e-11      1.32547e-11       25.000000     
                  1               
  1.72400e-07      1.30262e-11      1.32523e-11       25.000000     
                  1               
  1.72500e-07      1.30283e-11      1.32499e-11       25.000000     
                  1               
  1.72600e-07      1.30303e-11      1.32475e-11       25.000000     
                  1               
  1.72700e-07      1.30326e-11      1.32452e-11       25.000000     
                  1               
  1.72800e-07      1.30352e-11      1.32429e-11       25.000000     
                  1               
  1.72900e-07      1.30383e-11      1.32406e-11       25.000000     
                  1               
  1.73000e-07      1.30420e-11      1.32383e-11       25.000000     
                  1               
  1.73100e-07      1.30462e-11      1.32360e-11       25.000000     
                  1               
  1.73200e-07      1.30513e-11      1.32337e-11       25.000000     
                  1               
  1.73300e-07      1.30571e-11      1.32315e-11       25.000000     
                  1               
  1.73400e-07      1.30638e-11      1.32293e-11       25.000000     
                  1               
  1.73500e-07      1.30714e-11      1.32271e-11       25.000000     
                  1               
  1.73600e-07      1.30798e-11      1.32249e-11       25.000000     
                  1               
  1.73700e-07      1.30891e-11      1.32227e-11       25.000000     
                  1               
  1.73800e-07      1.30993e-11      1.32205e-11       25.000000     
                  1               
  1.73900e-07      1.31103e-11      1.32184e-11       25.000000     
                  1               
  1.74000e-07      1.31222e-11      1.32162e-11       25.000000     
                  1               
  1.74100e-07      1.31349e-11      1.32141e-11       25.000000     
                  1               
  1.74200e-07      1.31463e-11      1.32120e-11       25.000000     
                  1               
  1.74300e-07      1.31483e-11      1.32100e-11       25.000000     
                  1               
  1.74400e-07      1.31628e-11      1.32079e-11       25.000000     
                  1               
  1.74500e-07      1.31653e-11      1.32058e-11       25.000000     
                  1               
  1.74600e-07      1.31679e-11      1.32038e-11       25.000000     
                  1               
  1.74700e-07      1.31703e-11      1.32018e-11       25.000000     
                  1               
  1.74800e-07      1.31727e-11      1.31997e-11       25.000000     
                  1               
  1.74900e-07      1.31749e-11      1.31975e-11       25.000000     
                  1               
  1.75000e-07      1.31770e-11      1.31954e-11       25.000000     
                  1               
  1.75100e-07      1.31788e-11      1.31933e-11       25.000000     
                  1               
  1.75200e-07      1.31803e-11      1.31912e-11       25.000000     
                  1               
  1.75300e-07      1.31815e-11      1.31891e-11       25.000000     
                  1               
  1.75400e-07      1.31823e-11      1.31870e-11       25.000000     
                  1               
  1.75500e-07      1.31825e-11      1.31850e-11       25.000000     
                  1               
  1.75600e-07      1.31821e-11      1.31830e-11       25.000000     
                  1               
  1.75700e-07      1.31645e-11      1.31810e-11       25.000000     
                  1               
  1.75800e-07      1.31642e-11      1.31790e-11       25.000000     
                  1               
  1.75900e-07      1.31065e-11      1.31770e-11       25.000000     
                  1               
  1.76000e-07      1.30536e-11      1.31750e-11       25.000000     
                  1               
  1.76100e-07      1.30454e-11      1.31731e-11       25.000000     
                  1               
  1.76200e-07      1.30178e-11      1.31712e-11       25.000000     
                  1               
  1.76300e-07      1.29711e-11      1.31693e-11       25.000000     
                  1               
  1.76400e-07      1.29139e-11      1.31674e-11       25.000000     
                  1               
  1.76500e-07      1.28318e-11      1.31656e-11       25.000000     
                  1               
  1.76600e-07      1.30814e-11      1.31637e-11       25.000000     
                  1               
[...]
  1.80900e-07      1.33708e-11      1.31026e-11       25.000000     
                  1               
  1.81000e-07      1.33730e-11      1.31016e-11       25.000000     
                  1               
  1.81100e-07      1.33752e-11      1.31006e-11       25.000000     
                  1               
  1.81200e-07      1.33774e-11      1.30997e-11       25.000000     
                  1               
  1.81300e-07      1.33796e-11      1.30987e-11       25.000000     
                  1               
  1.81400e-07      1.33819e-11      1.30978e-11       25.000000     
                  1               
  1.81500e-07      1.33841e-11      1.30969e-11       25.000000     
                  1               
  1.81600e-07      1.33863e-11      1.30960e-11       25.000000     
                  1               
  1.81700e-07      1.33885e-11      1.30951e-11       25.000000     
                  1               
  1.81800e-07      1.33908e-11      1.30943e-11       25.000000     
                  1               
  1.81900e-07      1.33930e-11      1.30935e-11       25.000000     
                  1               
  1.82000e-07      1.33952e-11      1.30927e-11       25.000000     
                  1               
  1.82100e-07      1.33975e-11      1.30919e-11       25.000000     
                  1               
  1.82200e-07      1.33998e-11      1.30911e-11       25.000000     
                  1               
  1.82300e-07      1.34020e-11      1.30903e-11       25.000000     
                  1               
  1.82400e-07      1.34043e-11      1.30896e-11       25.000000     
                  1               
  1.82500e-07      1.34065e-11      1.30889e-11       25.000000     
                  1               
  1.82600e-07      1.34088e-11      1.30882e-11       25.000000     
                  1               
  1.82700e-07      1.34111e-11      1.30875e-11       25.000000     
                  1               
  1.82800e-07      1.34134e-11      1.30868e-11       25.000000     
                  1               
  1.82900e-07      1.34157e-11      1.30862e-11       25.000000     
                  1               
  1.83000e-07      1.34180e-11      1.30856e-11       25.000000     
                  1               
  1.83100e-07      1.34203e-11      1.30849e-11       25.000000     
                  1               
  1.83200e-07      1.34226e-11      1.30844e-11       25.000000     
                  1               
  1.83300e-07      1.34249e-11      1.30838e-11       25.000000     
                  1               
  1.83400e-07      1.34272e-11      1.30832e-11       25.000000     
                  1               
  1.83500e-07      1.34295e-11      1.30827e-11       25.000000     
                  1               
  1.83600e-07      1.34318e-11      1.30822e-11       25.000000     
                  1               
  1.83700e-07      1.34341e-11      1.30817e-11       25.000000     
                  1               
  1.83800e-07      1.34365e-11      1.30812e-11       25.000000     
                  1               
  1.83900e-07      1.34388e-11      1.30808e-11       25.000000     
                  1               
  1.84000e-07      1.34411e-11      1.30803e-11       25.000000     
                  1               
  1.84100e-07      1.34435e-11      1.30799e-11       25.000000     
                  1               
  1.84200e-07      1.34458e-11      1.30795e-11       25.000000     
                  1               
  1.84300e-07      1.34482e-11      1.30791e-11       25.000000     
                  1               
  1.84400e-07      1.34505e-11      1.30787e-11       25.000000     
                  1               
  1.84500e-07      1.34529e-11      1.30784e-11       25.000000     
                  1               
  1.84600e-07      1.34553e-11      1.30780e-11       25.000000     
                  1               
  1.84700e-07      1.34576e-11      1.30777e-11       25.000000     
                  1               
  1.84800e-07      1.34600e-11      1.30775e-11       25.000000     
                  1               
  1.84900e-07      1.34624e-11      1.30772e-11       25.000000     
                  1               
  1.85000e-07      1.34648e-11      1.30769e-11       25.000000     
                  1               
  1.85100e-07      1.34671e-11      1.30767e-11       25.000000     
                  1               
  1.85200e-07      1.34695e-11      1.30766e-11       25.000000     
                  1               
  1.85300e-07      1.34719e-11      1.30764e-11       25.000000     
                  1               
  1.85400e-07      1.34743e-11      1.30763e-11       25.000000     
                  1               
  1.85500e-07      1.34767e-11      1.30761e-11       25.000000     
                  1               
  1.85600e-07      1.34791e-11      1.30760e-11       25.000000     
                  1               
  1.85700e-07      1.34815e-11      1.30759e-11       25.000000     
                  1               
  1.85800e-07      1.34839e-11      1.30758e-11       25.000000     
                  1               
  1.85900e-07      1.34863e-11      1.30757e-11       25.000000     
                  1               
  1.86000e-07      1.34888e-11      1.31042e-11       25.000000     
                  1               
  1.86100e-07      1.34912e-11      1.31043e-11       25.000000     
                  1               
  1.86200e-07      1.34936e-11      1.31044e-11       25.000000     
                  1               
  1.86300e-07      1.34960e-11      1.31046e-11       25.000000     
                  1               
  1.86400e-07      1.34985e-11      1.31047e-11       25.000000     
                  1               
  1.86500e-07      1.35009e-11      1.31049e-11       25.000000     
                  1               
  1.86600e-07      1.35033e-11      1.31051e-11       25.000000     
                  1               
  1.86700e-07      1.35058e-11      1.31054e-11       25.000000     
                  1               
  1.86800e-07      1.35080e-11      1.33737e-11       25.000000     
                  1               
  1.86900e-07      1.35104e-11      1.33739e-11       25.000000     
                  1               
  1.87000e-07      1.35129e-11      1.33742e-11       25.000000     
                  1               
  1.87100e-07      1.35153e-11      1.33745e-11       25.000000     
                  1               
  1.87200e-07      1.35178e-11      1.33747e-11       25.000000     
                  1               
  1.87300e-07      1.35203e-11      1.33750e-11       25.000000     
                  1               
  1.87400e-07      1.35228e-11      1.33753e-11       25.000000     
                  1               
  1.87500e-07      1.35253e-11      1.33755e-11       25.000000     
                  1               
  1.87600e-07      1.35277e-11      1.33758e-11       25.000000     
                  1               
  1.87700e-07      1.35302e-11      1.33761e-11       25.000000     
                  1               
  1.87800e-07      1.35327e-11      1.33763e-11       25.000000     
                  1               
  1.87900e-07      1.35352e-11      1.33766e-11       25.000000     
                  1               
  1.88000e-07      1.35377e-11      1.33769e-11       25.000000     
                  1               
  1.88100e-07      1.35402e-11      1.33772e-11       25.000000     
                  1               
  1.88200e-07      1.35427e-11      1.33775e-11       25.000000     
                  1               
  1.88300e-07      1.35452e-11      1.33777e-11       25.000000     
                  1               
  1.88400e-07      1.35477e-11      1.33780e-11       25.000000     
                  1               
  1.88500e-07      1.35503e-11      1.33783e-11       25.000000     
                  1               
  1.88600e-07      1.35528e-11      1.33786e-11       25.000000     
                  1               
  1.88700e-07      1.35553e-11      1.33789e-11       25.000000     
                  1               
  1.88800e-07      1.35578e-11      1.33792e-11       25.000000     
                  1               
  1.88900e-07      1.35604e-11      1.33795e-11       25.000000     
                  1               
  1.89000e-07      1.35629e-11      1.33798e-11       25.000000     
                  1               
  1.89100e-07      1.35654e-11      1.33801e-11       25.000000     
                  1               
  1.89200e-07      1.35680e-11      1.33804e-11       25.000000     
                  1               
  1.89300e-07      1.35705e-11      1.33807e-11       25.000000     
                  1               
  1.89400e-07      1.35730e-11      1.33810e-11       25.000000     
                  1               
  1.89500e-07      1.35756e-11      1.33813e-11       25.000000     
                  1               
  1.89600e-07      1.35781e-11      1.33816e-11       25.000000     
                  1               
  1.89700e-07      1.35807e-11      1.33819e-11       25.000000     
                  1               
  1.89800e-07      1.35832e-11      1.33822e-11       25.000000     
                  1               
  1.89900e-07      1.35858e-11      1.33826e-11       25.000000     
                  1               
  1.90000e-07      1.35884e-11      1.33829e-11       25.000000     
                  1               
  1.90100e-07      1.35909e-11      1.33832e-11       25.000000     
                  1               
  1.90200e-07      1.35935e-11      1.33835e-11       25.000000     
                  1               
  1.90300e-07      1.35961e-11      1.33838e-11       25.000000     
                  1               
  1.90400e-07      1.35986e-11      1.33842e-11       25.000000     
                  1               
  1.90500e-07      1.36012e-11      1.33845e-11       25.000000     
                  1               
  1.90600e-07      1.36038e-11      1.33848e-11       25.000000     
                  1               
  1.90700e-07      1.36064e-11      1.33851e-11       25.000000     
                  1               
  1.90800e-07      1.36090e-11      1.33855e-11       25.000000     
                  1               
  1.90900e-07      1.36116e-11      1.33858e-11       25.000000     
                  1               
  1.91000e-07      1.36142e-11      1.33861e-11       25.000000     
                  1               
  1.91100e-07      1.36167e-11      1.33865e-11       25.000000     
                  1               
  1.91200e-07      1.36193e-11      1.33868e-11       25.000000     
                  1               
  1.91300e-07      1.36219e-11      1.33872e-11       25.000000     
                  1               
  1.91400e-07      1.36245e-11      1.33875e-11       25.000000     
                  1               
  1.91500e-07      1.36272e-11      1.33878e-11       25.000000     
                  1               
  1.91600e-07      1.36298e-11      1.33882e-11       25.000000     
                  1               
  1.91700e-07      1.36324e-11      1.33885e-11       25.000000     
                  1               
  1.91800e-07      1.36350e-11      1.33889e-11       25.000000     
                  1               
  1.91900e-07      1.36376e-11      1.33892e-11       25.000000     
                  1               
  1.92000e-07      1.36402e-11      1.33896e-11       25.000000     
                  1               
  1.92100e-07      1.36429e-11      1.33899e-11       25.000000     
                  1               
  1.92200e-07      1.36455e-11      1.33903e-11       25.000000     
                  1               
  1.92300e-07      1.36481e-11      1.33907e-11       25.000000     
                  1               
  1.92400e-07      1.36508e-11      1.33910e-11       25.000000     
                  1               
  1.92500e-07      1.36534e-11      1.33914e-11       25.000000     
                  1               
  1.92600e-07      1.36557e-11      1.33918e-11       25.000000     
                  1               
  1.92700e-07      1.36546e-11      1.33921e-11       25.000000     
                  1               
  1.92800e-07      1.36535e-11      1.33925e-11       25.000000     
                  1               
  1.92900e-07      1.36524e-11      1.33929e-11       25.000000     
                  1               
  1.93000e-07      1.36513e-11      1.33932e-11       25.000000     
                  1               
  1.93100e-07      1.36504e-11      1.33936e-11       25.000000     
                  1               
  1.93200e-07      1.36494e-11      1.33940e-11       25.000000     
                  1               
  1.93300e-07      1.36484e-11      1.33944e-11       25.000000     
                  1               
  1.93400e-07      1.36475e-11      1.33947e-11       25.000000     
                  1               
  1.93500e-07      1.36465e-11      1.33951e-11       25.000000     
                  1               
  1.93600e-07      1.36456e-11      1.33955e-11       25.000000     
                  1               
  1.93700e-07      1.36448e-11      1.33959e-11       25.000000     
                  1               
  1.93800e-07      1.36439e-11      1.33963e-11       25.000000     
                  1               
  1.93900e-07      1.36431e-11      1.33967e-11       25.000000     
                  1               
  1.94000e-07      1.36423e-11      1.33970e-11       25.000000     
                  1               
  1.94100e-07      1.36415e-11      1.33974e-11       25.000000     
                  1               
  1.94200e-07      1.36408e-11      1.33978e-11       25.000000     
                  1               
  1.94300e-07      1.36400e-11      1.33982e-11       25.000000     
                  1               
  1.94400e-07      1.36393e-11      1.33986e-11       25.000000     
                  1               
  1.94500e-07      1.36387e-11      1.33990e-11       25.000000     
                  1               
  1.94600e-07      1.36380e-11      1.33994e-11       25.000000     
                  1               
  1.94700e-07      1.36374e-11      1.33998e-11       25.000000     
                  1               
  1.94800e-07      1.36367e-11      1.34002e-11       25.000000     
                  1               
  1.94900e-07      1.36362e-11      1.34006e-11       25.000000     
                  1               
  1.95000e-07      1.36356e-11      1.34010e-11       25.000000     
                  1               
  1.95100e-07      1.36350e-11      1.34014e-11       25.000000     
                  1               
  1.95200e-07      1.36345e-11      1.34018e-11       25.000000     
                  1               
  1.95300e-07      1.36340e-11      1.34023e-11       25.000000     
                  1               
  1.95400e-07      1.36335e-11      1.34027e-11       25.000000     
                  1               
  1.95500e-07      1.36331e-11      1.34031e-11       25.000000     
                  1               
  1.95600e-07      1.36326e-11      1.34035e-11       25.000000     
                  1               
  1.95700e-07      1.36322e-11      1.34039e-11       25.000000     
                  1               
  1.95800e-07      1.36318e-11      1.34043e-11       25.000000     
                  1               
  1.95900e-07      1.36314e-11      1.34048e-11       25.000000     
                  1               
  1.96000e-07      1.36309e-11      1.34052e-11       25.000000     
                  1               
  1.96100e-07      1.36305e-11      1.34057e-11       25.000000     
                  1               
  1.96200e-07      1.36302e-11      1.34061e-11       25.000000     
                  1               
  1.96300e-07      1.36299e-11      1.34066e-11       25.000000     
                  1               
  1.96400e-07      1.36296e-11      1.34070e-11       25.000000     
                  1               
  1.96500e-07      1.36293e-11      1.34074e-11       25.000000     
                  1               
  1.96600e-07      1.36290e-11      1.34079e-11       25.000000     
                  1               
  1.96700e-07      1.36288e-11      1.34083e-11       25.000000     
                  1               
  1.96800e-07      1.36286e-11      1.34087e-11       25.000000     
                  1               
  1.96900e-07      1.36284e-11      1.34092e-11       25.000000     
                  1               
  1.97000e-07      1.36282e-11      1.34096e-11       25.000000     
                  1               
  1.97100e-07      1.36281e-11      1.34101e-11       25.000000     
                  1               
  1.97200e-07      1.36279e-11      1.34105e-11       25.000000     
                  1               
  1.97300e-07      1.36278e-11      1.34109e-11       25.000000     
                  1               
  1.97400e-07      1.36277e-11      1.34114e-11       25.000000     
                  1               
  1.97500e-07      1.36276e-11      1.34118e-11       25.000000     
                  1               
  1.97600e-07      1.36275e-11      1.34123e-11       25.000000     
                  1               
  1.97700e-07      1.36275e-11      1.34127e-11       25.000000     
                  1               
  1.97800e-07      1.36274e-11      1.34132e-11       25.000000     
                  1               
  1.97900e-07      1.36274e-11      1.34137e-11       25.000000     
                  1               
  1.98000e-07      1.36274e-11      1.34141e-11       25.000000     
                  1               
  1.98100e-07      1.36274e-11      1.34146e-11       25.000000     
                  1               
  1.98200e-07      1.36274e-11      1.34150e-11       25.000000     
                  1               
  1.98300e-07      1.36274e-11      1.34155e-11       25.000000     
                  1               
  1.98400e-07      1.36275e-11      1.34160e-11       25.000000     
                  1               
  1.98500e-07      1.36275e-11      1.34164e-11       25.000000     
                  1               
  1.98600e-07      1.36276e-11      1.34169e-11       25.000000     
                  1               
  1.98700e-07      1.36277e-11      1.34173e-11       25.000000     
                  1               
  1.98800e-07      1.36278e-11      1.34178e-11       25.000000     
                  1               
  1.98900e-07      1.36279e-11      1.34183e-11       25.000000     
                  1               
  1.99000e-07      1.36281e-11      1.34188e-11       25.000000     
                  1               
  1.99100e-07      1.36282e-11      1.34192e-11       25.000000     
                  1               
  1.99200e-07      1.36284e-11      1.34197e-11       25.000000     
                  1               
  1.99300e-07      1.36286e-11      1.34202e-11       25.000000     
                  1               
  1.99400e-07      1.36288e-11      1.34207e-11       25.000000     
                  1               
  1.99500e-07      1.36290e-11      1.34212e-11       25.000000     
                  1               
  1.99600e-07      1.36292e-11      1.34216e-11       25.000000     
                  1               
  1.99700e-07      1.36294e-11      1.34221e-11       25.000000     
                  1               
  1.99800e-07      1.36297e-11      1.34226e-11       25.000000     
                  1               
  1.99900e-07      1.36300e-11      1.34231e-11       25.000000     
                  1               
  2.00000e-07      1.36302e-11      1.34236e-11       25.000000     
                  1               
