$DATA1 SOURCE='HSPICE' VERSION='J-2014.09 64-BIT'
.TITLE 'connecting a dut inverter with f04 configuration'
 pmos_width_param delay_l_to_h     delay_h_to_l     temper          
                  alter#          
  1.000e-07        1.128e-11        1.430e-11         25.0000       
                  1               
  1.001e-07        1.128e-11        1.430e-11         25.0000       
                  1               
  1.002e-07        1.128e-11        1.430e-11         25.0000       
                  1               
  1.003e-07        1.128e-11        1.429e-11         25.0000       
                  1               
  1.004e-07        1.128e-11        1.429e-11         25.0000       
                  1               
  1.005e-07        1.128e-11        1.429e-11         25.0000       
                  1               
  1.006e-07        1.128e-11        1.428e-11         25.0000       
                  1               
  1.007e-07        1.128e-11        1.428e-11         25.0000       
                  1               
  1.008e-07        1.128e-11        1.428e-11         25.0000       
                  1               
  1.009e-07        1.128e-11        1.427e-11         25.0000       
                  1               
  1.010e-07        1.128e-11        1.427e-11         25.0000       
                  1               
  1.011e-07        1.128e-11        1.427e-11         25.0000       
                  1               
  1.012e-07        1.128e-11        1.426e-11         25.0000       
                  1               
  1.013e-07        1.128e-11        1.426e-11         25.0000       
                  1               
  1.014e-07        1.128e-11        1.426e-11         25.0000       
                  1               
  1.015e-07        1.128e-11        1.426e-11         25.0000       
                  1               
  1.016e-07        1.128e-11        1.425e-11         25.0000       
                  1               
  1.017e-07        1.124e-11        1.425e-11         25.0000       
                  1               
  1.018e-07        1.124e-11        1.425e-11         25.0000       
                  1               
  1.019e-07        1.124e-11        1.424e-11         25.0000       
                  1               
  1.020e-07        1.124e-11        1.424e-11         25.0000       
                  1               
  1.021e-07        1.124e-11        1.424e-11         25.0000       
                  1               
  1.022e-07        1.124e-11        1.423e-11         25.0000       
                  1               
  1.023e-07        1.124e-11        1.423e-11         25.0000       
                  1               
  1.024e-07        1.124e-11        1.423e-11         25.0000       
                  1               
  1.025e-07        1.124e-11        1.423e-11         25.0000       
                  1               
  1.026e-07        1.124e-11        1.422e-11         25.0000       
                  1               
  1.027e-07        1.124e-11        1.422e-11         25.0000       
                  1               
  1.028e-07        1.124e-11        1.422e-11         25.0000       
                  1               
  1.029e-07        1.124e-11        1.421e-11         25.0000       
                  1               
  1.030e-07        1.125e-11        1.421e-11         25.0000       
                  1               
  1.031e-07        1.125e-11        1.421e-11         25.0000       
                  1               
  1.032e-07        1.125e-11        1.420e-11         25.0000       
                  1               
  1.033e-07        1.125e-11        1.420e-11         25.0000       
                  1               
  1.034e-07        1.125e-11        1.420e-11         25.0000       
                  1               
  1.035e-07        1.125e-11        1.420e-11         25.0000       
                  1               
  1.036e-07        1.125e-11        1.419e-11         25.0000       
                  1               
  1.037e-07        1.125e-11        1.419e-11         25.0000       
                  1               
  1.038e-07        1.125e-11        1.419e-11         25.0000       
                  1               
  1.039e-07        1.125e-11        1.418e-11         25.0000       
                  1               
  1.040e-07        1.125e-11        1.418e-11         25.0000       
                  1               
  1.041e-07        1.125e-11        1.418e-11         25.0000       
                  1               
  1.042e-07        1.125e-11        1.418e-11         25.0000       
                  1               
  1.043e-07        1.125e-11        1.417e-11         25.0000       
                  1               
  1.044e-07        1.125e-11        1.417e-11         25.0000       
                  1               
  1.045e-07        1.126e-11        1.417e-11         25.0000       
                  1               
  1.046e-07        1.126e-11        1.416e-11         25.0000       
                  1               
  1.047e-07        1.126e-11        1.416e-11         25.0000       
                  1               
  1.048e-07        1.126e-11        1.416e-11         25.0000       
                  1               
  1.049e-07        1.126e-11        1.416e-11         25.0000       
                  1               
  1.050e-07        1.126e-11        1.415e-11         25.0000       
                  1               
  1.051e-07        1.126e-11        1.415e-11         25.0000       
                  1               
  1.052e-07        1.126e-11        1.415e-11         25.0000       
                  1               
  1.053e-07        1.126e-11        1.415e-11         25.0000       
                  1               
  1.054e-07        1.126e-11        1.414e-11         25.0000       
                  1               
  1.055e-07        1.127e-11        1.414e-11         25.0000       
                  1               
  1.056e-07        1.127e-11        1.414e-11         25.0000       
                  1               
  1.057e-07        1.127e-11        1.414e-11         25.0000       
                  1               
  1.058e-07        1.127e-11        1.413e-11         25.0000       
                  1               
  1.059e-07        1.127e-11        1.413e-11         25.0000       
                  1               
  1.060e-07        1.127e-11        1.413e-11         25.0000       
                  1               
  1.061e-07        1.127e-11        1.412e-11         25.0000       
                  1               
  1.062e-07        1.127e-11        1.412e-11         25.0000       
                  1               
  1.063e-07        1.127e-11        1.412e-11         25.0000       
                  1               
  1.064e-07        1.128e-11        1.412e-11         25.0000       
                  1               
  1.065e-07        1.128e-11        1.411e-11         25.0000       
                  1               
  1.066e-07        1.128e-11        1.411e-11         25.0000       
                  1               
  1.067e-07        1.128e-11        1.411e-11         25.0000       
                  1               
  1.068e-07        1.128e-11        1.411e-11         25.0000       
                  1               
  1.069e-07        1.128e-11        1.410e-11         25.0000       
                  1               
  1.070e-07        1.128e-11        1.410e-11         25.0000       
                  1               
  1.071e-07        1.128e-11        1.410e-11         25.0000       
                  1               
  1.072e-07        1.129e-11        1.410e-11         25.0000       
                  1               
  1.073e-07        1.129e-11        1.409e-11         25.0000       
                  1               
  1.074e-07        1.129e-11        1.409e-11         25.0000       
                  1               
  1.075e-07        1.129e-11        1.409e-11         25.0000       
                  1               
  1.076e-07        1.129e-11        1.409e-11         25.0000       
                  1               
  1.077e-07        1.129e-11        1.408e-11         25.0000       
                  1               
  1.078e-07        1.129e-11        1.408e-11         25.0000       
                  1               
  1.079e-07        1.129e-11        1.408e-11         25.0000       
                  1               
  1.080e-07        1.130e-11        1.408e-11         25.0000       
                  1               
  1.081e-07        1.130e-11        1.407e-11         25.0000       
                  1               
  1.082e-07        1.130e-11        1.407e-11         25.0000       
                  1               
  1.083e-07        1.130e-11        1.407e-11         25.0000       
                  1               
  1.084e-07        1.130e-11        1.407e-11         25.0000       
                  1               
  1.085e-07        1.130e-11        1.406e-11         25.0000       
                  1               
  1.086e-07        1.131e-11        1.406e-11         25.0000       
                  1               
  1.087e-07        1.131e-11        1.406e-11         25.0000       
                  1               
  1.088e-07        1.131e-11        1.406e-11         25.0000       
                  1               
  1.089e-07        1.131e-11        1.405e-11         25.0000       
                  1               
  1.090e-07        1.131e-11        1.405e-11         25.0000       
                  1               
  1.091e-07        1.131e-11        1.405e-11         25.0000       
                  1               
  1.092e-07        1.131e-11        1.405e-11         25.0000       
                  1               
  1.093e-07        1.132e-11        1.405e-11         25.0000       
                  1               
  1.094e-07        1.132e-11        1.404e-11         25.0000       
                  1               
  1.095e-07        1.132e-11        1.404e-11         25.0000       
                  1               
  1.096e-07        1.132e-11        1.404e-11         25.0000       
                  1               
  1.097e-07        1.132e-11        1.404e-11         25.0000       
                  1               
  1.098e-07        1.132e-11        1.403e-11         25.0000       
                  1               
  1.099e-07        1.133e-11        1.403e-11         25.0000       
                  1               
  1.100e-07        1.133e-11        1.403e-11         25.0000       
                  1               
  1.101e-07        1.133e-11        1.403e-11         25.0000       
                  1               
  1.102e-07        1.133e-11        1.402e-11         25.0000       
                  1               
  1.103e-07        1.133e-11        1.402e-11         25.0000       
                  1               
  1.104e-07        1.133e-11        1.402e-11         25.0000       
                  1               
  1.105e-07        1.134e-11        1.402e-11         25.0000       
                  1               
  1.106e-07        1.134e-11        1.402e-11         25.0000       
                  1               
  1.107e-07        1.134e-11        1.401e-11         25.0000       
                  1               
  1.108e-07        1.134e-11        1.401e-11         25.0000       
                  1               
  1.109e-07        1.134e-11        1.401e-11         25.0000       
                  1               
  1.110e-07        1.135e-11        1.401e-11         25.0000       
                  1               
  1.111e-07        1.135e-11        1.400e-11         25.0000       
                  1               
  1.112e-07        1.135e-11        1.400e-11         25.0000       
                  1               
  1.113e-07        1.135e-11        1.400e-11         25.0000       
                  1               
  1.114e-07        1.135e-11        1.400e-11         25.0000       
                  1               
  1.115e-07        1.135e-11        1.400e-11         25.0000       
                  1               
  1.116e-07        1.136e-11        1.399e-11         25.0000       
                  1               
  1.117e-07        1.136e-11        1.399e-11         25.0000       
                  1               
  1.118e-07        1.136e-11        1.399e-11         25.0000       
                  1               
  1.119e-07        1.136e-11        1.399e-11         25.0000       
                  1               
  1.120e-07        1.136e-11        1.398e-11         25.0000       
                  1               
  1.121e-07        1.137e-11        1.398e-11         25.0000       
                  1               
  1.122e-07        1.137e-11        1.398e-11         25.0000       
                  1               
  1.123e-07        1.137e-11        1.398e-11         25.0000       
                  1               
  1.124e-07        1.137e-11        1.398e-11         25.0000       
                  1               
  1.125e-07        1.137e-11        1.397e-11         25.0000       
                  1               
  1.126e-07        1.138e-11        1.397e-11         25.0000       
                  1               
  1.127e-07        1.138e-11        1.397e-11         25.0000       
                  1               
  1.128e-07        1.138e-11        1.397e-11         25.0000       
                  1               
  1.129e-07        1.138e-11        1.397e-11         25.0000       
                  1               
  1.130e-07        1.138e-11        1.396e-11         25.0000       
                  1               
  1.131e-07        1.139e-11        1.396e-11         25.0000       
                  1               
  1.132e-07        1.139e-11        1.396e-11         25.0000       
                  1               
  1.133e-07        1.139e-11        1.396e-11         25.0000       
                  1               
  1.134e-07        1.139e-11        1.396e-11         25.0000       
                  1               
  1.135e-07        1.139e-11        1.395e-11         25.0000       
                  1               
  1.136e-07        1.139e-11        1.395e-11         25.0000       
                  1               
  1.137e-07        1.140e-11        1.395e-11         25.0000       
                  1               
  1.138e-07        1.140e-11        1.395e-11         25.0000       
                  1               
  1.139e-07        1.140e-11        1.395e-11         25.0000       
                  1               
  1.140e-07        1.140e-11        1.394e-11         25.0000       
                  1               
  1.141e-07        1.140e-11        1.394e-11         25.0000       
                  1               
  1.142e-07        1.141e-11        1.394e-11         25.0000       
                  1               
  1.143e-07        1.141e-11        1.394e-11         25.0000       
                  1               
  1.144e-07        1.141e-11        1.394e-11         25.0000       
                  1               
  1.145e-07        1.141e-11        1.393e-11         25.0000       
                  1               
  1.146e-07        1.141e-11        1.393e-11         25.0000       
                  1               
  1.147e-07        1.142e-11        1.393e-11         25.0000       
                  1               
  1.148e-07        1.142e-11        1.393e-11         25.0000       
                  1               
  1.149e-07        1.142e-11        1.393e-11         25.0000       
                  1               
  1.150e-07        1.142e-11        1.392e-11         25.0000       
                  1               
  1.151e-07        1.143e-11        1.392e-11         25.0000       
                  1               
  1.152e-07        1.143e-11        1.392e-11         25.0000       
                  1               
  1.153e-07        1.143e-11        1.392e-11         25.0000       
                  1               
  1.154e-07        1.143e-11        1.392e-11         25.0000       
                  1               
  1.155e-07        1.143e-11        1.391e-11         25.0000       
                  1               
  1.156e-07        1.144e-11        1.391e-11         25.0000       
                  1               
  1.157e-07        1.144e-11        1.391e-11         25.0000       
                  1               
  1.158e-07        1.144e-11        1.391e-11         25.0000       
                  1               
  1.159e-07        1.144e-11        1.391e-11         25.0000       
                  1               
  1.160e-07        1.145e-11        1.390e-11         25.0000       
                  1               
  1.161e-07        1.145e-11        1.390e-11         25.0000       
                  1               
  1.162e-07        1.145e-11        1.390e-11         25.0000       
                  1               
  1.163e-07        1.145e-11        1.390e-11         25.0000       
                  1               
  1.164e-07        1.145e-11        1.390e-11         25.0000       
                  1               
  1.165e-07        1.146e-11        1.389e-11         25.0000       
                  1               
  1.166e-07        1.146e-11        1.389e-11         25.0000       
                  1               
  1.167e-07        1.146e-11        1.389e-11         25.0000       
                  1               
  1.168e-07        1.146e-11        1.389e-11         25.0000       
                  1               
  1.169e-07        1.147e-11        1.389e-11         25.0000       
                  1               
  1.170e-07        1.147e-11        1.389e-11         25.0000       
                  1               
  1.171e-07        1.147e-11        1.388e-11         25.0000       
                  1               
  1.172e-07        1.147e-11        1.388e-11         25.0000       
                  1               
  1.173e-07        1.147e-11        1.388e-11         25.0000       
                  1               
  1.174e-07        1.148e-11        1.388e-11         25.0000       
                  1               
  1.175e-07        1.148e-11        1.388e-11         25.0000       
                  1               
  1.176e-07        1.148e-11        1.387e-11         25.0000       
                  1               
  1.177e-07        1.148e-11        1.387e-11         25.0000       
                  1               
  1.178e-07        1.148e-11        1.387e-11         25.0000       
                  1               
  1.179e-07        1.149e-11        1.387e-11         25.0000       
                  1               
  1.180e-07        1.149e-11        1.387e-11         25.0000       
                  1               
  1.181e-07        1.149e-11        1.387e-11         25.0000       
                  1               
  1.182e-07        1.149e-11        1.386e-11         25.0000       
                  1               
  1.183e-07        1.150e-11        1.386e-11         25.0000       
                  1               
  1.184e-07        1.150e-11        1.386e-11         25.0000       
                  1               
  1.185e-07        1.150e-11        1.386e-11         25.0000       
                  1               
  1.186e-07        1.150e-11        1.386e-11         25.0000       
                  1               
  1.187e-07        1.150e-11        1.386e-11         25.0000       
                  1               
  1.188e-07        1.151e-11        1.385e-11         25.0000       
                  1               
  1.189e-07        1.151e-11        1.385e-11         25.0000       
                  1               
  1.190e-07        1.151e-11        1.385e-11         25.0000       
                  1               
  1.191e-07        1.151e-11        1.385e-11         25.0000       
                  1               
  1.192e-07        1.152e-11        1.385e-11         25.0000       
                  1               
  1.193e-07        1.152e-11        1.385e-11         25.0000       
                  1               
  1.194e-07        1.152e-11        1.384e-11         25.0000       
                  1               
  1.195e-07        1.152e-11        1.384e-11         25.0000       
                  1               
  1.196e-07        1.153e-11        1.384e-11         25.0000       
                  1               
  1.197e-07        1.153e-11        1.384e-11         25.0000       
                  1               
  1.198e-07        1.153e-11        1.384e-11         25.0000       
                  1               
  1.199e-07        1.153e-11        1.384e-11         25.0000       
                  1               
  1.200e-07        1.153e-11        1.383e-11         25.0000       
                  1               
  1.201e-07        1.154e-11        1.383e-11         25.0000       
                  1               
  1.202e-07        1.155e-11        1.383e-11         25.0000       
                  1               
  1.203e-07        1.155e-11        1.383e-11         25.0000       
                  1               
  1.204e-07        1.156e-11        1.383e-11         25.0000       
                  1               
  1.205e-07        1.156e-11        1.383e-11         25.0000       
                  1               
  1.206e-07        1.156e-11        1.382e-11         25.0000       
                  1               
  1.207e-07        1.156e-11        1.382e-11         25.0000       
                  1               
  1.208e-07        1.157e-11        1.382e-11         25.0000       
                  1               
  1.209e-07        1.157e-11        1.382e-11         25.0000       
                  1               
  1.210e-07        1.157e-11        1.382e-11         25.0000       
                  1               
  1.211e-07        1.157e-11        1.382e-11         25.0000       
                  1               
  1.212e-07        1.157e-11        1.382e-11         25.0000       
                  1               
  1.213e-07        1.158e-11        1.381e-11         25.0000       
                  1               
  1.214e-07        1.158e-11        1.381e-11         25.0000       
                  1               
  1.215e-07        1.158e-11        1.381e-11         25.0000       
                  1               
  1.216e-07        1.158e-11        1.381e-11         25.0000       
                  1               
  1.217e-07        1.159e-11        1.381e-11         25.0000       
                  1               
  1.218e-07        1.159e-11        1.381e-11         25.0000       
                  1               
  1.219e-07        1.159e-11        1.381e-11         25.0000       
                  1               
  1.220e-07        1.159e-11        1.380e-11         25.0000       
                  1               
  1.221e-07        1.160e-11        1.380e-11         25.0000       
                  1               
  1.222e-07        1.160e-11        1.380e-11         25.0000       
                  1               
  1.223e-07        1.160e-11        1.380e-11         25.0000       
                  1               
  1.224e-07        1.160e-11        1.380e-11         25.0000       
                  1               
  1.225e-07        1.161e-11        1.380e-11         25.0000       
                  1               
  1.226e-07        1.161e-11        1.380e-11         25.0000       
                  1               
  1.227e-07        1.161e-11        1.379e-11         25.0000       
                  1               
  1.228e-07        1.161e-11        1.379e-11         25.0000       
                  1               
  1.229e-07        1.162e-11        1.379e-11         25.0000       
                  1               
  1.230e-07        1.162e-11        1.379e-11         25.0000       
                  1               
  1.231e-07        1.162e-11        1.379e-11         25.0000       
                  1               
  1.232e-07        1.162e-11        1.379e-11         25.0000       
                  1               
  1.233e-07        1.163e-11        1.379e-11         25.0000       
                  1               
  1.234e-07        1.163e-11        1.378e-11         25.0000       
                  1               
  1.235e-07        1.163e-11        1.378e-11         25.0000       
                  1               
  1.236e-07        1.163e-11        1.378e-11         25.0000       
                  1               
  1.237e-07        1.164e-11        1.378e-11         25.0000       
                  1               
  1.238e-07        1.164e-11        1.378e-11         25.0000       
                  1               
  1.239e-07        1.164e-11        1.378e-11         25.0000       
                  1               
  1.240e-07        1.164e-11        1.378e-11         25.0000       
                  1               
  1.241e-07        1.165e-11        1.377e-11         25.0000       
                  1               
  1.242e-07        1.165e-11        1.377e-11         25.0000       
                  1               
  1.243e-07        1.165e-11        1.377e-11         25.0000       
                  1               
  1.244e-07        1.165e-11        1.377e-11         25.0000       
                  1               
  1.245e-07        1.165e-11        1.377e-11         25.0000       
                  1               
  1.246e-07        1.166e-11        1.377e-11         25.0000       
                  1               
  1.247e-07        1.166e-11        1.377e-11         25.0000       
                  1               
  1.248e-07        1.166e-11        1.377e-11         25.0000       
                  1               
  1.249e-07        1.167e-11        1.376e-11         25.0000       
                  1               
  1.250e-07        1.167e-11        1.376e-11         25.0000       
                  1               
  1.251e-07        1.167e-11        1.376e-11         25.0000       
                  1               
  1.252e-07        1.167e-11        1.376e-11         25.0000       
                  1               
  1.253e-07        1.167e-11        1.376e-11         25.0000       
                  1               
  1.254e-07        1.168e-11        1.376e-11         25.0000       
                  1               
  1.255e-07        1.168e-11        1.376e-11         25.0000       
                  1               
  1.256e-07        1.168e-11        1.376e-11         25.0000       
                  1               
  1.257e-07        1.168e-11        1.375e-11         25.0000       
                  1               
  1.258e-07        1.169e-11        1.375e-11         25.0000       
                  1               
  1.259e-07        1.169e-11        1.375e-11         25.0000       
                  1               
  1.260e-07        1.169e-11        1.375e-11         25.0000       
                  1               
  1.261e-07        1.169e-11        1.375e-11         25.0000       
                  1               
  1.262e-07        1.170e-11        1.375e-11         25.0000       
                  1               
  1.263e-07        1.170e-11        1.375e-11         25.0000       
                  1               
  1.264e-07        1.170e-11        1.375e-11         25.0000       
                  1               
  1.265e-07        1.170e-11        1.374e-11         25.0000       
                  1               
  1.266e-07        1.171e-11        1.374e-11         25.0000       
                  1               
  1.267e-07        1.171e-11        1.374e-11         25.0000       
                  1               
  1.268e-07        1.171e-11        1.374e-11         25.0000       
                  1               
  1.269e-07        1.171e-11        1.374e-11         25.0000       
                  1               
  1.270e-07        1.172e-11        1.374e-11         25.0000       
                  1               
  1.271e-07        1.172e-11        1.373e-11         25.0000       
                  1               
  1.272e-07        1.172e-11        1.373e-11         25.0000       
                  1               
  1.273e-07        1.172e-11        1.373e-11         25.0000       
                  1               
  1.274e-07        1.173e-11        1.373e-11         25.0000       
                  1               
  1.275e-07        1.173e-11        1.372e-11         25.0000       
                  1               
  1.276e-07        1.173e-11        1.372e-11         25.0000       
                  1               
  1.277e-07        1.174e-11        1.372e-11         25.0000       
                  1               
  1.278e-07        1.174e-11        1.371e-11         25.0000       
                  1               
  1.279e-07        1.174e-11        1.371e-11         25.0000       
                  1               
  1.280e-07        1.174e-11        1.371e-11         25.0000       
                  1               
  1.281e-07        1.175e-11        1.371e-11         25.0000       
                  1               
  1.282e-07        1.175e-11        1.370e-11         25.0000       
                  1               
  1.283e-07        1.175e-11        1.370e-11         25.0000       
                  1               
  1.284e-07        1.175e-11        1.370e-11         25.0000       
                  1               
  1.285e-07        1.175e-11        1.370e-11         25.0000       
                  1               
  1.286e-07        1.176e-11        1.369e-11         25.0000       
                  1               
  1.287e-07        1.176e-11        1.369e-11         25.0000       
                  1               
  1.288e-07        1.176e-11        1.369e-11         25.0000       
                  1               
  1.289e-07        1.176e-11        1.369e-11         25.0000       
                  1               
  1.290e-07        1.177e-11        1.368e-11         25.0000       
                  1               
  1.291e-07        1.177e-11        1.368e-11         25.0000       
                  1               
  1.292e-07        1.177e-11        1.368e-11         25.0000       
                  1               
  1.293e-07        1.177e-11        1.368e-11         25.0000       
                  1               
  1.294e-07        1.178e-11        1.367e-11         25.0000       
                  1               
  1.295e-07        1.178e-11        1.367e-11         25.0000       
                  1               
  1.296e-07        1.178e-11        1.367e-11         25.0000       
                  1               
  1.297e-07        1.178e-11        1.367e-11         25.0000       
                  1               
  1.298e-07        1.179e-11        1.366e-11         25.0000       
                  1               
  1.299e-07        1.179e-11        1.366e-11         25.0000       
                  1               
  1.300e-07        1.179e-11        1.366e-11         25.0000       
                  1               
  1.301e-07        1.179e-11        1.366e-11         25.0000       
                  1               
  1.302e-07        1.180e-11        1.365e-11         25.0000       
                  1               
  1.303e-07        1.180e-11        1.365e-11         25.0000       
                  1               
  1.304e-07        1.180e-11        1.365e-11         25.0000       
                  1               
  1.305e-07        1.180e-11        1.365e-11         25.0000       
                  1               
  1.306e-07        1.181e-11        1.364e-11         25.0000       
                  1               
  1.307e-07        1.181e-11        1.364e-11         25.0000       
                  1               
  1.308e-07        1.181e-11        1.364e-11         25.0000       
                  1               
  1.309e-07        1.181e-11        1.364e-11         25.0000       
                  1               
  1.310e-07        1.182e-11        1.363e-11         25.0000       
                  1               
  1.311e-07        1.182e-11        1.363e-11         25.0000       
                  1               
  1.312e-07        1.182e-11        1.363e-11         25.0000       
                  1               
  1.313e-07        1.182e-11        1.363e-11         25.0000       
                  1               
  1.314e-07        1.182e-11        1.362e-11         25.0000       
                  1               
  1.315e-07        1.183e-11        1.362e-11         25.0000       
                  1               
  1.316e-07        1.183e-11        1.362e-11         25.0000       
                  1               
  1.317e-07        1.183e-11        1.362e-11         25.0000       
                  1               
  1.318e-07        1.183e-11        1.362e-11         25.0000       
                  1               
  1.319e-07        1.184e-11        1.361e-11         25.0000       
                  1               
  1.320e-07        1.184e-11        1.361e-11         25.0000       
                  1               
  1.321e-07        1.184e-11        1.361e-11         25.0000       
                  1               
  1.322e-07        1.184e-11        1.361e-11         25.0000       
                  1               
  1.323e-07        1.185e-11        1.360e-11         25.0000       
                  1               
  1.324e-07        1.185e-11        1.360e-11         25.0000       
                  1               
  1.325e-07        1.185e-11        1.360e-11         25.0000       
                  1               
  1.326e-07        1.185e-11        1.360e-11         25.0000       
                  1               
  1.327e-07        1.185e-11        1.359e-11         25.0000       
                  1               
  1.328e-07        1.186e-11        1.359e-11         25.0000       
                  1               
  1.329e-07        1.186e-11        1.359e-11         25.0000       
                  1               
  1.330e-07        1.186e-11        1.359e-11         25.0000       
                  1               
  1.331e-07        1.186e-11        1.359e-11         25.0000       
                  1               
  1.332e-07        1.187e-11        1.358e-11         25.0000       
                  1               
  1.333e-07        1.187e-11        1.358e-11         25.0000       
                  1               
  1.334e-07        1.187e-11        1.358e-11         25.0000       
                  1               
  1.335e-07        1.188e-11        1.358e-11         25.0000       
                  1               
  1.336e-07        1.188e-11        1.358e-11         25.0000       
                  1               
  1.337e-07        1.189e-11        1.357e-11         25.0000       
                  1               
  1.338e-07        1.190e-11        1.357e-11         25.0000       
                  1               
  1.339e-07        1.190e-11        1.357e-11         25.0000       
                  1               
  1.340e-07        1.191e-11        1.357e-11         25.0000       
                  1               
  1.341e-07        1.191e-11        1.356e-11         25.0000       
                  1               
  1.342e-07        1.192e-11        1.356e-11         25.0000       
                  1               
  1.343e-07        1.192e-11        1.356e-11         25.0000       
                  1               
  1.344e-07        1.193e-11        1.356e-11         25.0000       
                  1               
  1.345e-07        1.193e-11        1.356e-11         25.0000       
                  1               
  1.346e-07        1.194e-11        1.355e-11         25.0000       
                  1               
  1.347e-07        1.194e-11        1.355e-11         25.0000       
                  1               
  1.348e-07        1.195e-11        1.355e-11         25.0000       
                  1               
  1.349e-07        1.195e-11        1.355e-11         25.0000       
                  1               
  1.350e-07        1.196e-11        1.355e-11         25.0000       
                  1               
  1.351e-07        1.197e-11        1.354e-11         25.0000       
                  1               
  1.352e-07        1.197e-11        1.354e-11         25.0000       
                  1               
  1.353e-07        1.198e-11        1.354e-11         25.0000       
                  1               
  1.354e-07        1.198e-11        1.354e-11         25.0000       
                  1               
  1.355e-07        1.199e-11        1.354e-11         25.0000       
                  1               
  1.356e-07        1.199e-11        1.353e-11         25.0000       
                  1               
  1.357e-07        1.200e-11        1.353e-11         25.0000       
                  1               
  1.358e-07        1.200e-11        1.353e-11         25.0000       
                  1               
  1.359e-07        1.201e-11        1.353e-11         25.0000       
                  1               
  1.360e-07        1.202e-11        1.353e-11         25.0000       
                  1               
  1.361e-07        1.202e-11        1.352e-11         25.0000       
                  1               
  1.362e-07        1.203e-11        1.352e-11         25.0000       
                  1               
  1.363e-07        1.203e-11        1.352e-11         25.0000       
                  1               
  1.364e-07        1.204e-11        1.352e-11         25.0000       
                  1               
  1.365e-07        1.205e-11        1.352e-11         25.0000       
                  1               
  1.366e-07        1.205e-11        1.352e-11         25.0000       
                  1               
  1.367e-07        1.206e-11        1.351e-11         25.0000       
                  1               
  1.368e-07        1.206e-11        1.351e-11         25.0000       
                  1               
  1.369e-07        1.207e-11        1.351e-11         25.0000       
                  1               
  1.370e-07        1.208e-11        1.351e-11         25.0000       
                  1               
  1.371e-07        1.208e-11        1.351e-11         25.0000       
                  1               
  1.372e-07        1.209e-11        1.350e-11         25.0000       
                  1               
  1.373e-07        1.209e-11        1.350e-11         25.0000       
                  1               
  1.374e-07        1.210e-11        1.350e-11         25.0000       
                  1               
  1.375e-07        1.211e-11        1.350e-11         25.0000       
                  1               
  1.376e-07        1.211e-11        1.350e-11         25.0000       
                  1               
  1.377e-07        1.212e-11        1.350e-11         25.0000       
                  1               
  1.378e-07        1.213e-11        1.349e-11         25.0000       
                  1               
  1.379e-07        1.213e-11        1.349e-11         25.0000       
                  1               
  1.380e-07        1.214e-11        1.349e-11         25.0000       
                  1               
  1.381e-07        1.215e-11        1.349e-11         25.0000       
                  1               
  1.382e-07        1.215e-11        1.349e-11         25.0000       
                  1               
  1.383e-07        1.216e-11        1.348e-11         25.0000       
                  1               
  1.384e-07        1.217e-11        1.348e-11         25.0000       
                  1               
  1.385e-07        1.217e-11        1.348e-11         25.0000       
                  1               
  1.386e-07        1.218e-11        1.348e-11         25.0000       
                  1               
  1.387e-07        1.219e-11        1.347e-11         25.0000       
                  1               
  1.388e-07        1.220e-11        1.347e-11         25.0000       
                  1               
  1.389e-07        1.221e-11        1.347e-11         25.0000       
                  1               
  1.390e-07        1.221e-11        1.347e-11         25.0000       
                  1               
  1.391e-07        1.222e-11        1.346e-11         25.0000       
                  1               
  1.392e-07        1.223e-11        1.346e-11         25.0000       
                  1               
  1.393e-07        1.224e-11        1.346e-11         25.0000       
                  1               
  1.394e-07        1.225e-11        1.346e-11         25.0000       
                  1               
  1.395e-07        1.225e-11        1.345e-11         25.0000       
                  1               
  1.396e-07        1.226e-11        1.345e-11         25.0000       
                  1               
  1.397e-07        1.227e-11        1.345e-11         25.0000       
                  1               
  1.398e-07        1.228e-11        1.345e-11         25.0000       
                  1               
  1.399e-07        1.229e-11        1.344e-11         25.0000       
                  1               
  1.400e-07        1.230e-11        1.344e-11         25.0000       
                  1               
  1.401e-07        1.231e-11        1.344e-11         25.0000       
                  1               
  1.402e-07        1.232e-11        1.344e-11         25.0000       
                  1               
  1.403e-07        1.232e-11        1.343e-11         25.0000       
                  1               
  1.404e-07        1.234e-11        1.343e-11         25.0000       
                  1               
  1.405e-07        1.235e-11        1.343e-11         25.0000       
                  1               
  1.406e-07        1.236e-11        1.343e-11         25.0000       
                  1               
  1.407e-07        1.238e-11        1.342e-11         25.0000       
                  1               
  1.408e-07        1.239e-11        1.342e-11         25.0000       
                  1               
  1.409e-07        1.240e-11        1.342e-11         25.0000       
                  1               
  1.410e-07        1.242e-11        1.342e-11         25.0000       
                  1               
  1.411e-07        1.243e-11        1.342e-11         25.0000       
                  1               
  1.412e-07        1.245e-11        1.341e-11         25.0000       
                  1               
  1.413e-07        1.246e-11        1.341e-11         25.0000       
                  1               
  1.414e-07        1.248e-11        1.341e-11         25.0000       
                  1               
  1.415e-07        1.249e-11        1.341e-11         25.0000       
                  1               
  1.416e-07        1.251e-11        1.340e-11         25.0000       
                  1               
  1.417e-07        1.252e-11        1.340e-11         25.0000       
                  1               
  1.418e-07        1.254e-11        1.340e-11         25.0000       
                  1               
  1.419e-07        1.256e-11        1.340e-11         25.0000       
                  1               
  1.420e-07        1.258e-11        1.339e-11         25.0000       
                  1               
  1.421e-07        1.259e-11        1.339e-11         25.0000       
                  1               
  1.422e-07        1.207e-11        1.339e-11         25.0000       
                  1               
  1.423e-07        1.207e-11        1.339e-11         25.0000       
                  1               
  1.424e-07        1.207e-11        1.339e-11         25.0000       
                  1               
  1.425e-07        1.207e-11        1.338e-11         25.0000       
                  1               
  1.426e-07        1.207e-11        1.338e-11         25.0000       
                  1               
  1.427e-07        1.208e-11        1.338e-11         25.0000       
                  1               
  1.428e-07        1.208e-11        1.338e-11         25.0000       
                  1               
  1.429e-07        1.208e-11        1.338e-11         25.0000       
                  1               
  1.430e-07        1.208e-11        1.337e-11         25.0000       
                  1               
  1.431e-07        1.208e-11        1.337e-11         25.0000       
                  1               
  1.432e-07        1.209e-11        1.337e-11         25.0000       
                  1               
  1.433e-07        1.209e-11        1.337e-11         25.0000       
                  1               
  1.434e-07        1.209e-11        1.337e-11         25.0000       
                  1               
  1.435e-07        1.209e-11        1.336e-11         25.0000       
                  1               
  1.436e-07        1.209e-11        1.336e-11         25.0000       
                  1               
  1.437e-07        1.210e-11        1.336e-11         25.0000       
                  1               
  1.438e-07        1.210e-11        1.336e-11         25.0000       
                  1               
  1.439e-07        1.207e-11        1.336e-11         25.0000       
                  1               
  1.440e-07        1.207e-11        1.335e-11         25.0000       
                  1               
  1.441e-07        1.207e-11        1.335e-11         25.0000       
                  1               
  1.442e-07        1.207e-11        1.335e-11         25.0000       
                  1               
  1.443e-07        1.207e-11        1.335e-11         25.0000       
                  1               
  1.444e-07        1.207e-11        1.335e-11         25.0000       
                  1               
  1.445e-07        1.207e-11        1.334e-11         25.0000       
                  1               
  1.446e-07        1.207e-11        1.334e-11         25.0000       
                  1               
  1.447e-07        1.207e-11        1.334e-11         25.0000       
                  1               
  1.448e-07        1.207e-11        1.334e-11         25.0000       
                  1               
  1.449e-07        1.207e-11        1.334e-11         25.0000       
                  1               
  1.450e-07        1.207e-11        1.333e-11         25.0000       
                  1               
  1.451e-07        1.207e-11        1.333e-11         25.0000       
                  1               
  1.452e-07        1.207e-11        1.333e-11         25.0000       
                  1               
  1.453e-07        1.207e-11        1.333e-11         25.0000       
                  1               
  1.454e-07        1.207e-11        1.333e-11         25.0000       
                  1               
  1.455e-07        1.207e-11        1.333e-11         25.0000       
                  1               
  1.456e-07        1.207e-11        1.332e-11         25.0000       
                  1               
  1.457e-07        1.208e-11        1.332e-11         25.0000       
                  1               
  1.458e-07        1.208e-11        1.332e-11         25.0000       
                  1               
  1.459e-07        1.208e-11        1.332e-11         25.0000       
                  1               
  1.460e-07        1.208e-11        1.332e-11         25.0000       
                  1               
  1.461e-07        1.208e-11        1.332e-11         25.0000       
                  1               
  1.462e-07        1.208e-11        1.331e-11         25.0000       
                  1               
  1.463e-07        1.209e-11        1.331e-11         25.0000       
                  1               
  1.464e-07        1.209e-11        1.331e-11         25.0000       
                  1               
  1.465e-07        1.209e-11        1.331e-11         25.0000       
                  1               
  1.466e-07        1.209e-11        1.331e-11         25.0000       
                  1               
  1.467e-07        1.210e-11        1.331e-11         25.0000       
                  1               
  1.468e-07        1.210e-11        1.330e-11         25.0000       
                  1               
  1.469e-07        1.207e-11        1.330e-11         25.0000       
                  1               
  1.470e-07        1.207e-11        1.330e-11         25.0000       
                  1               
  1.471e-07        1.208e-11        1.330e-11         25.0000       
                  1               
  1.472e-07        1.208e-11        1.330e-11         25.0000       
                  1               
  1.473e-07        1.208e-11        1.330e-11         25.0000       
                  1               
  1.474e-07        1.209e-11        1.329e-11         25.0000       
                  1               
  1.475e-07        1.209e-11        1.329e-11         25.0000       
                  1               
  1.476e-07        1.209e-11        1.329e-11         25.0000       
                  1               
  1.477e-07        1.209e-11        1.329e-11         25.0000       
                  1               
  1.478e-07        1.210e-11        1.329e-11         25.0000       
                  1               
  1.479e-07        1.210e-11        1.329e-11         25.0000       
                  1               
  1.480e-07        1.210e-11        1.328e-11         25.0000       
                  1               
  1.481e-07        1.211e-11        1.328e-11         25.0000       
                  1               
  1.482e-07        1.211e-11        1.328e-11         25.0000       
                  1               
  1.483e-07        1.211e-11        1.328e-11         25.0000       
                  1               
  1.484e-07        1.212e-11        1.328e-11         25.0000       
                  1               
  1.485e-07        1.212e-11        1.328e-11         25.0000       
                  1               
  1.486e-07        1.212e-11        1.328e-11         25.0000       
                  1               
  1.487e-07        1.213e-11        1.327e-11         25.0000       
                  1               
  1.488e-07        1.213e-11        1.327e-11         25.0000       
                  1               
  1.489e-07        1.213e-11        1.327e-11         25.0000       
                  1               
  1.490e-07        1.213e-11        1.327e-11         25.0000       
                  1               
  1.491e-07        1.214e-11        1.327e-11         25.0000       
                  1               
  1.492e-07        1.214e-11        1.327e-11         25.0000       
                  1               
  1.493e-07        1.214e-11        1.327e-11         25.0000       
                  1               
  1.494e-07        1.215e-11        1.327e-11         25.0000       
                  1               
  1.495e-07        1.215e-11        1.326e-11         25.0000       
                  1               
  1.496e-07        1.215e-11        1.326e-11         25.0000       
                  1               
  1.497e-07        1.215e-11        1.326e-11         25.0000       
                  1               
  1.498e-07        1.216e-11        1.326e-11         25.0000       
                  1               
  1.499e-07        1.216e-11        1.326e-11         25.0000       
                  1               
  1.500e-07        1.216e-11        1.326e-11         25.0000       
                  1               
  1.501e-07        1.217e-11        1.326e-11         25.0000       
                  1               
  1.502e-07        1.217e-11        1.325e-11         25.0000       
                  1               
  1.503e-07        1.217e-11        1.325e-11         25.0000       
                  1               
  1.504e-07        1.217e-11        1.325e-11         25.0000       
                  1               
  1.505e-07        1.218e-11        1.325e-11         25.0000       
                  1               
  1.506e-07        1.218e-11        1.325e-11         25.0000       
                  1               
  1.507e-07        1.218e-11        1.325e-11         25.0000       
                  1               
  1.508e-07        1.218e-11        1.325e-11         25.0000       
                  1               
  1.509e-07        1.218e-11        1.325e-11         25.0000       
                  1               
  1.510e-07        1.219e-11        1.324e-11         25.0000       
                  1               
  1.511e-07        1.219e-11        1.324e-11         25.0000       
                  1               
  1.512e-07        1.219e-11        1.324e-11         25.0000       
                  1               
  1.513e-07        1.219e-11        1.324e-11         25.0000       
                  1               
  1.514e-07        1.219e-11        1.324e-11         25.0000       
                  1               
  1.515e-07        1.219e-11        1.324e-11         25.0000       
                  1               
  1.516e-07        1.219e-11        1.324e-11         25.0000       
                  1               
  1.517e-07        1.220e-11        1.324e-11         25.0000       
                  1               
  1.518e-07        1.220e-11        1.324e-11         25.0000       
                  1               
  1.519e-07        1.220e-11        1.323e-11         25.0000       
                  1               
  1.520e-07        1.220e-11        1.323e-11         25.0000       
                  1               
  1.521e-07        1.220e-11        1.323e-11         25.0000       
                  1               
  1.522e-07        1.220e-11        1.323e-11         25.0000       
                  1               
  1.523e-07        1.220e-11        1.323e-11         25.0000       
                  1               
  1.524e-07        1.220e-11        1.323e-11         25.0000       
                  1               
  1.525e-07        1.221e-11        1.323e-11         25.0000       
                  1               
  1.526e-07        1.221e-11        1.323e-11         25.0000       
                  1               
  1.527e-07        1.221e-11        1.324e-11         25.0000       
                  1               
  1.528e-07        1.221e-11        1.324e-11         25.0000       
                  1               
  1.529e-07        1.221e-11        1.324e-11         25.0000       
                  1               
  1.530e-07        1.221e-11        1.323e-11         25.0000       
                  1               
  1.531e-07        1.221e-11        1.323e-11         25.0000       
                  1               
  1.532e-07        1.221e-11        1.323e-11         25.0000       
                  1               
  1.533e-07        1.221e-11        1.323e-11         25.0000       
                  1               
  1.534e-07        1.221e-11        1.323e-11         25.0000       
                  1               
  1.535e-07        1.221e-11        1.323e-11         25.0000       
                  1               
  1.536e-07        1.221e-11        1.323e-11         25.0000       
                  1               
  1.537e-07        1.221e-11        1.323e-11         25.0000       
                  1               
  1.538e-07        1.221e-11        1.323e-11         25.0000       
                  1               
  1.539e-07        1.221e-11        1.323e-11         25.0000       
                  1               
  1.540e-07        1.224e-11        1.323e-11         25.0000       
                  1               
  1.541e-07        1.224e-11        1.322e-11         25.0000       
                  1               
  1.542e-07        1.224e-11        1.322e-11         25.0000       
                  1               
  1.543e-07        1.224e-11        1.322e-11         25.0000       
                  1               
  1.544e-07        1.224e-11        1.322e-11         25.0000       
                  1               
  1.545e-07        1.224e-11        1.322e-11         25.0000       
                  1               
  1.546e-07        1.252e-11        1.322e-11         25.0000       
                  1               
  1.547e-07        1.244e-11        1.322e-11         25.0000       
                  1               
  1.548e-07        1.232e-11        1.322e-11         25.0000       
                  1               
  1.549e-07        1.233e-11        1.322e-11         25.0000       
                  1               
  1.550e-07        1.233e-11        1.322e-11         25.0000       
                  1               
  1.551e-07        1.233e-11        1.322e-11         25.0000       
                  1               
  1.552e-07        1.234e-11        1.322e-11         25.0000       
                  1               
  1.553e-07        1.234e-11        1.322e-11         25.0000       
                  1               
  1.554e-07        1.234e-11        1.322e-11         25.0000       
                  1               
  1.555e-07        1.234e-11        1.321e-11         25.0000       
                  1               
  1.556e-07        1.235e-11        1.321e-11         25.0000       
                  1               
  1.557e-07        1.235e-11        1.321e-11         25.0000       
                  1               
  1.558e-07        1.277e-11        1.350e-11         25.0000       
                  1               
  1.559e-07        1.278e-11        1.350e-11         25.0000       
                  1               
  1.560e-07        1.278e-11        1.350e-11         25.0000       
                  1               
  1.561e-07        1.278e-11        1.350e-11         25.0000       
                  1               
  1.562e-07        1.279e-11        1.350e-11         25.0000       
                  1               
  1.563e-07        1.279e-11        1.350e-11         25.0000       
                  1               
  1.564e-07        1.279e-11        1.350e-11         25.0000       
                  1               
  1.565e-07        1.280e-11        1.350e-11         25.0000       
                  1               
  1.566e-07        1.280e-11        1.350e-11         25.0000       
                  1               
  1.567e-07        1.280e-11        1.350e-11         25.0000       
                  1               
  1.568e-07        1.281e-11        1.350e-11         25.0000       
                  1               
  1.569e-07        1.288e-11        1.343e-11         25.0000       
                  1               
  1.570e-07        1.288e-11        1.343e-11         25.0000       
                  1               
  1.571e-07        1.288e-11        1.343e-11         25.0000       
                  1               
  1.572e-07        1.288e-11        1.342e-11         25.0000       
                  1               
  1.573e-07        1.289e-11        1.342e-11         25.0000       
                  1               
  1.574e-07        1.289e-11        1.342e-11         25.0000       
                  1               
  1.575e-07        1.289e-11        1.342e-11         25.0000       
                  1               
  1.576e-07        1.289e-11        1.342e-11         25.0000       
                  1               
  1.577e-07        1.290e-11        1.342e-11         25.0000       
                  1               
  1.578e-07        1.290e-11        1.342e-11         25.0000       
                  1               
  1.579e-07        1.290e-11        1.342e-11         25.0000       
                  1               
  1.580e-07        1.290e-11        1.342e-11         25.0000       
                  1               
  1.581e-07        1.291e-11        1.342e-11         25.0000       
                  1               
  1.582e-07        1.291e-11        1.342e-11         25.0000       
                  1               
  1.583e-07        1.291e-11        1.342e-11         25.0000       
                  1               
  1.584e-07        1.291e-11        1.342e-11         25.0000       
                  1               
  1.585e-07        1.291e-11        1.342e-11         25.0000       
                  1               
  1.586e-07        1.292e-11        1.342e-11         25.0000       
                  1               
  1.587e-07        1.292e-11        1.341e-11         25.0000       
                  1               
  1.588e-07        1.292e-11        1.341e-11         25.0000       
                  1               
  1.589e-07        1.292e-11        1.341e-11         25.0000       
                  1               
  1.590e-07        1.292e-11        1.341e-11         25.0000       
                  1               
  1.591e-07        1.292e-11        1.341e-11         25.0000       
                  1               
  1.592e-07        1.293e-11        1.341e-11         25.0000       
                  1               
  1.593e-07        1.293e-11        1.341e-11         25.0000       
                  1               
  1.594e-07        1.293e-11        1.341e-11         25.0000       
                  1               
  1.595e-07        1.293e-11        1.341e-11         25.0000       
                  1               
  1.596e-07        1.293e-11        1.341e-11         25.0000       
                  1               
  1.597e-07        1.293e-11        1.341e-11         25.0000       
                  1               
  1.598e-07        1.293e-11        1.341e-11         25.0000       
                  1               
  1.599e-07        1.294e-11        1.341e-11         25.0000       
                  1               
  1.600e-07        1.294e-11        1.341e-11         25.0000       
                  1               
  1.601e-07        1.294e-11        1.341e-11         25.0000       
                  1               
  1.602e-07        1.294e-11        1.340e-11         25.0000       
                  1               
  1.603e-07        1.294e-11        1.340e-11         25.0000       
                  1               
  1.604e-07        1.294e-11        1.340e-11         25.0000       
                  1               
  1.605e-07        1.295e-11        1.340e-11         25.0000       
                  1               
  1.606e-07        1.295e-11        1.340e-11         25.0000       
                  1               
  1.607e-07        1.295e-11        1.340e-11         25.0000       
                  1               
  1.608e-07        1.295e-11        1.340e-11         25.0000       
                  1               
  1.609e-07        1.295e-11        1.340e-11         25.0000       
                  1               
  1.610e-07        1.295e-11        1.340e-11         25.0000       
                  1               
  1.611e-07        1.295e-11        1.340e-11         25.0000       
                  1               
  1.612e-07        1.295e-11        1.340e-11         25.0000       
                  1               
  1.613e-07        1.296e-11        1.340e-11         25.0000       
                  1               
  1.614e-07        1.296e-11        1.340e-11         25.0000       
                  1               
  1.615e-07        1.296e-11        1.340e-11         25.0000       
                  1               
  1.616e-07        1.296e-11        1.340e-11         25.0000       
                  1               
  1.617e-07        1.296e-11        1.339e-11         25.0000       
                  1               
  1.618e-07        1.249e-11        1.339e-11         25.0000       
                  1               
  1.619e-07        1.250e-11        1.339e-11         25.0000       
                  1               
  1.620e-07        1.252e-11        1.339e-11         25.0000       
                  1               
  1.621e-07        1.250e-11        1.339e-11         25.0000       
                  1               
  1.622e-07        1.258e-11        1.339e-11         25.0000       
                  1               
  1.623e-07        1.261e-11        1.339e-11         25.0000       
                  1               
  1.624e-07        1.244e-11        1.339e-11         25.0000       
                  1               
  1.625e-07        1.246e-11        1.339e-11         25.0000       
                  1               
  1.626e-07        1.247e-11        1.339e-11         25.0000       
                  1               
  1.627e-07        1.248e-11        1.339e-11         25.0000       
                  1               
  1.628e-07        1.250e-11        1.339e-11         25.0000       
                  1               
  1.629e-07        1.251e-11        1.339e-11         25.0000       
                  1               
  1.630e-07        1.253e-11        1.339e-11         25.0000       
                  1               
  1.631e-07        1.254e-11        1.339e-11         25.0000       
                  1               
  1.632e-07        1.256e-11        1.338e-11         25.0000       
                  1               
  1.633e-07        1.257e-11        1.338e-11         25.0000       
                  1               
  1.634e-07        1.259e-11        1.338e-11         25.0000       
                  1               
  1.635e-07        1.260e-11        1.338e-11         25.0000       
                  1               
  1.636e-07        1.262e-11        1.338e-11         25.0000       
                  1               
  1.637e-07        1.263e-11        1.338e-11         25.0000       
                  1               
  1.638e-07        1.265e-11        1.338e-11         25.0000       
                  1               
  1.639e-07        1.266e-11        1.338e-11         25.0000       
                  1               
  1.640e-07        1.267e-11        1.338e-11         25.0000       
                  1               
  1.641e-07        1.268e-11        1.338e-11         25.0000       
                  1               
  1.642e-07        1.269e-11        1.338e-11         25.0000       
                  1               
  1.643e-07        1.269e-11        1.338e-11         25.0000       
                  1               
  1.644e-07        1.270e-11        1.338e-11         25.0000       
                  1               
  1.645e-07        1.270e-11        1.338e-11         25.0000       
                  1               
  1.646e-07        1.270e-11        1.337e-11         25.0000       
                  1               
  1.647e-07        1.269e-11        1.337e-11         25.0000       
                  1               
  1.648e-07        1.268e-11        1.337e-11         25.0000       
                  1               
  1.649e-07        1.266e-11        1.337e-11         25.0000       
                  1               
  1.650e-07        1.261e-11        1.337e-11         25.0000       
                  1               
  1.651e-07        1.256e-11        1.337e-11         25.0000       
                  1               
  1.652e-07        1.249e-11        1.337e-11         25.0000       
                  1               
  1.653e-07        1.276e-11        1.337e-11         25.0000       
                  1               
  1.654e-07        1.279e-11        1.337e-11         25.0000       
                  1               
  1.655e-07        1.283e-11        1.337e-11         25.0000       
                  1               
  1.656e-07        1.285e-11        1.337e-11         25.0000       
                  1               
  1.657e-07        1.283e-11        1.337e-11         25.0000       
                  1               
  1.658e-07        1.280e-11        1.337e-11         25.0000       
                  1               
  1.659e-07        1.301e-11        1.337e-11         25.0000       
                  1               
  1.660e-07        1.301e-11        1.337e-11         25.0000       
                  1               
  1.661e-07        1.301e-11        1.336e-11         25.0000       
                  1               
  1.662e-07        1.301e-11        1.336e-11         25.0000       
                  1               
  1.663e-07        1.302e-11        1.336e-11         25.0000       
                  1               
  1.664e-07        1.302e-11        1.336e-11         25.0000       
                  1               
  1.665e-07        1.302e-11        1.336e-11         25.0000       
                  1               
  1.666e-07        1.303e-11        1.336e-11         25.0000       
                  1               
  1.667e-07        1.303e-11        1.336e-11         25.0000       
                  1               
  1.668e-07        1.303e-11        1.336e-11         25.0000       
                  1               
  1.669e-07        1.303e-11        1.336e-11         25.0000       
                  1               
  1.670e-07        1.304e-11        1.335e-11         25.0000       
                  1               
  1.671e-07        1.304e-11        1.335e-11         25.0000       
                  1               
  1.672e-07        1.304e-11        1.335e-11         25.0000       
                  1               
  1.673e-07        1.304e-11        1.335e-11         25.0000       
                  1               
  1.674e-07        1.305e-11        1.335e-11         25.0000       
                  1               
  1.675e-07        1.305e-11        1.335e-11         25.0000       
                  1               
  1.676e-07        1.305e-11        1.335e-11         25.0000       
                  1               
  1.677e-07        1.305e-11        1.335e-11         25.0000       
                  1               
  1.678e-07        1.306e-11        1.334e-11         25.0000       
                  1               
  1.679e-07        1.306e-11        1.334e-11         25.0000       
                  1               
  1.680e-07        1.306e-11        1.334e-11         25.0000       
                  1               
  1.681e-07        1.306e-11        1.334e-11         25.0000       
                  1               
  1.682e-07        1.307e-11        1.334e-11         25.0000       
                  1               
  1.683e-07        1.307e-11        1.334e-11         25.0000       
                  1               
  1.684e-07        1.307e-11        1.334e-11         25.0000       
                  1               
  1.685e-07        1.307e-11        1.333e-11         25.0000       
                  1               
  1.686e-07        1.308e-11        1.333e-11         25.0000       
                  1               
  1.687e-07        1.308e-11        1.333e-11         25.0000       
                  1               
  1.688e-07        1.308e-11        1.333e-11         25.0000       
                  1               
  1.689e-07        1.308e-11        1.333e-11         25.0000       
                  1               
  1.690e-07        1.309e-11        1.333e-11         25.0000       
                  1               
  1.691e-07        1.309e-11        1.333e-11         25.0000       
                  1               
  1.692e-07        1.309e-11        1.333e-11         25.0000       
                  1               
  1.693e-07        1.309e-11        1.332e-11         25.0000       
                  1               
  1.694e-07        1.310e-11        1.332e-11         25.0000       
                  1               
  1.695e-07        1.310e-11        1.332e-11         25.0000       
                  1               
  1.696e-07        1.310e-11        1.332e-11         25.0000       
                  1               
  1.697e-07        1.310e-11        1.332e-11         25.0000       
                  1               
  1.698e-07        1.311e-11        1.332e-11         25.0000       
                  1               
  1.699e-07        1.311e-11        1.332e-11         25.0000       
                  1               
  1.700e-07        1.311e-11        1.332e-11         25.0000       
                  1               
  1.701e-07        1.311e-11        1.331e-11         25.0000       
                  1               
  1.702e-07        1.312e-11        1.331e-11         25.0000       
                  1               
  1.703e-07        1.312e-11        1.331e-11         25.0000       
                  1               
  1.704e-07        1.312e-11        1.330e-11         25.0000       
                  1               
  1.705e-07        1.312e-11        1.330e-11         25.0000       
                  1               
  1.706e-07        1.312e-11        1.330e-11         25.0000       
                  1               
  1.707e-07        1.291e-11        1.330e-11         25.0000       
                  1               
  1.708e-07        1.294e-11        1.329e-11         25.0000       
                  1               
  1.709e-07        1.296e-11        1.329e-11         25.0000       
                  1               
  1.710e-07        1.299e-11        1.329e-11         25.0000       
                  1               
  1.711e-07        1.265e-11        1.329e-11         25.0000       
                  1               
  1.712e-07        1.275e-11        1.328e-11         25.0000       
                  1               
  1.713e-07        1.282e-11        1.328e-11         25.0000       
                  1               
  1.714e-07        1.288e-11        1.328e-11         25.0000       
                  1               
  1.715e-07        1.291e-11        1.328e-11         25.0000       
                  1               
  1.716e-07        1.292e-11        1.327e-11         25.0000       
                  1               
  1.717e-07        1.293e-11        1.327e-11         25.0000       
                  1               
  1.718e-07        1.296e-11        1.327e-11         25.0000       
                  1               
  1.719e-07        1.300e-11        1.326e-11         25.0000       
                  1               
  1.720e-07        1.301e-11        1.326e-11         25.0000       
                  1               
  1.721e-07        1.302e-11        1.326e-11         25.0000       
                  1               
  1.722e-07        1.302e-11        1.326e-11         25.0000       
                  1               
  1.723e-07        1.302e-11        1.325e-11         25.0000       
                  1               
  1.724e-07        1.303e-11        1.325e-11         25.0000       
                  1               
  1.725e-07        1.303e-11        1.325e-11         25.0000       
                  1               
  1.726e-07        1.303e-11        1.325e-11         25.0000       
                  1               
  1.727e-07        1.303e-11        1.325e-11         25.0000       
                  1               
  1.728e-07        1.304e-11        1.324e-11         25.0000       
                  1               
  1.729e-07        1.304e-11        1.324e-11         25.0000       
                  1               
  1.730e-07        1.304e-11        1.324e-11         25.0000       
                  1               
  1.731e-07        1.305e-11        1.324e-11         25.0000       
                  1               
  1.732e-07        1.305e-11        1.323e-11         25.0000       
                  1               
  1.733e-07        1.306e-11        1.323e-11         25.0000       
                  1               
  1.734e-07        1.306e-11        1.323e-11         25.0000       
                  1               
  1.735e-07        1.307e-11        1.323e-11         25.0000       
                  1               
  1.736e-07        1.308e-11        1.322e-11         25.0000       
                  1               
  1.737e-07        1.309e-11        1.322e-11         25.0000       
                  1               
  1.738e-07        1.310e-11        1.322e-11         25.0000       
                  1               
  1.739e-07        1.311e-11        1.322e-11         25.0000       
                  1               
  1.740e-07        1.312e-11        1.322e-11         25.0000       
                  1               
  1.741e-07        1.313e-11        1.321e-11         25.0000       
                  1               
  1.742e-07        1.315e-11        1.321e-11         25.0000       
                  1               
  1.743e-07        1.315e-11        1.321e-11         25.0000       
                  1               
  1.744e-07        1.316e-11        1.321e-11         25.0000       
                  1               
  1.745e-07        1.317e-11        1.321e-11         25.0000       
                  1               
  1.746e-07        1.317e-11        1.320e-11         25.0000       
                  1               
  1.747e-07        1.317e-11        1.320e-11         25.0000       
                  1               
  1.748e-07        1.317e-11        1.320e-11         25.0000       
                  1               
  1.749e-07        1.317e-11        1.320e-11         25.0000       
                  1               
  1.750e-07        1.318e-11        1.320e-11         25.0000       
                  1               
  1.751e-07        1.318e-11        1.319e-11         25.0000       
                  1               
  1.752e-07        1.318e-11        1.319e-11         25.0000       
                  1               
  1.753e-07        1.318e-11        1.319e-11         25.0000       
                  1               
  1.754e-07        1.318e-11        1.319e-11         25.0000       
                  1               
  1.755e-07        1.318e-11        1.318e-11         25.0000       
                  1               
  1.756e-07        1.318e-11        1.318e-11         25.0000       
                  1               
  1.757e-07        1.316e-11        1.318e-11         25.0000       
                  1               
  1.758e-07        1.316e-11        1.318e-11         25.0000       
                  1               
  1.759e-07        1.311e-11        1.318e-11         25.0000       
                  1               
  1.760e-07        1.305e-11        1.318e-11         25.0000       
                  1               
  1.761e-07        1.305e-11        1.317e-11         25.0000       
                  1               
  1.762e-07        1.302e-11        1.317e-11         25.0000       
                  1               
  1.763e-07        1.297e-11        1.317e-11         25.0000       
                  1               
  1.764e-07        1.291e-11        1.317e-11         25.0000       
                  1               
  1.765e-07        1.283e-11        1.317e-11         25.0000       
                  1               
  1.766e-07        1.308e-11        1.316e-11         25.0000       
                  1               
[...]
  1.809e-07        1.337e-11        1.310e-11         25.0000       
                  1               
  1.810e-07        1.337e-11        1.310e-11         25.0000       
                  1               
  1.811e-07        1.338e-11        1.310e-11         25.0000       
                  1               
  1.812e-07        1.338e-11        1.310e-11         25.0000       
                  1               
  1.813e-07        1.338e-11        1.310e-11         25.0000       
                  1               
  1.814e-07        1.338e-11        1.310e-11         25.0000       
                  1               
  1.815e-07        1.338e-11        1.310e-11         25.0000       
                  1               
  1.816e-07        1.339e-11        1.310e-11         25.0000       
                  1               
  1.817e-07        1.339e-11        1.310e-11         25.0000       
                  1               
  1.818e-07        1.339e-11        1.309e-11         25.0000       
                  1               
  1.819e-07        1.339e-11        1.309e-11         25.0000       
                  1               
  1.820e-07        1.340e-11        1.309e-11         25.0000       
                  1               
  1.821e-07        1.340e-11        1.309e-11         25.0000       
                  1               
  1.822e-07        1.340e-11        1.309e-11         25.0000       
                  1               
  1.823e-07        1.340e-11        1.309e-11         25.0000       
                  1               
  1.824e-07        1.340e-11        1.309e-11         25.0000       
                  1               
  1.825e-07        1.341e-11        1.309e-11         25.0000       
                  1               
  1.826e-07        1.341e-11        1.309e-11         25.0000       
                  1               
  1.827e-07        1.341e-11        1.309e-11         25.0000       
                  1               
  1.828e-07        1.341e-11        1.309e-11         25.0000       
                  1               
  1.829e-07        1.342e-11        1.309e-11         25.0000       
                  1               
  1.830e-07        1.342e-11        1.309e-11         25.0000       
                  1               
  1.831e-07        1.342e-11        1.308e-11         25.0000       
                  1               
  1.832e-07        1.342e-11        1.308e-11         25.0000       
                  1               
  1.833e-07        1.342e-11        1.308e-11         25.0000       
                  1               
  1.834e-07        1.343e-11        1.308e-11         25.0000       
                  1               
  1.835e-07        1.343e-11        1.308e-11         25.0000       
                  1               
  1.836e-07        1.343e-11        1.308e-11         25.0000       
                  1               
  1.837e-07        1.343e-11        1.308e-11         25.0000       
                  1               
  1.838e-07        1.344e-11        1.308e-11         25.0000       
                  1               
  1.839e-07        1.344e-11        1.308e-11         25.0000       
                  1               
  1.840e-07        1.344e-11        1.308e-11         25.0000       
                  1               
  1.841e-07        1.344e-11        1.308e-11         25.0000       
                  1               
  1.842e-07        1.345e-11        1.308e-11         25.0000       
                  1               
  1.843e-07        1.345e-11        1.308e-11         25.0000       
                  1               
  1.844e-07        1.345e-11        1.308e-11         25.0000       
                  1               
  1.845e-07        1.345e-11        1.308e-11         25.0000       
                  1               
  1.846e-07        1.346e-11        1.308e-11         25.0000       
                  1               
  1.847e-07        1.346e-11        1.308e-11         25.0000       
                  1               
  1.848e-07        1.346e-11        1.308e-11         25.0000       
                  1               
  1.849e-07        1.346e-11        1.308e-11         25.0000       
                  1               
  1.850e-07        1.346e-11        1.308e-11         25.0000       
                  1               
  1.851e-07        1.347e-11        1.308e-11         25.0000       
                  1               
  1.852e-07        1.347e-11        1.308e-11         25.0000       
                  1               
  1.853e-07        1.347e-11        1.308e-11         25.0000       
                  1               
  1.854e-07        1.347e-11        1.308e-11         25.0000       
                  1               
  1.855e-07        1.348e-11        1.308e-11         25.0000       
                  1               
  1.856e-07        1.348e-11        1.308e-11         25.0000       
                  1               
  1.857e-07        1.348e-11        1.308e-11         25.0000       
                  1               
  1.858e-07        1.348e-11        1.308e-11         25.0000       
                  1               
  1.859e-07        1.349e-11        1.308e-11         25.0000       
                  1               
  1.860e-07        1.349e-11        1.310e-11         25.0000       
                  1               
  1.861e-07        1.349e-11        1.310e-11         25.0000       
                  1               
  1.862e-07        1.349e-11        1.310e-11         25.0000       
                  1               
  1.863e-07        1.350e-11        1.310e-11         25.0000       
                  1               
  1.864e-07        1.350e-11        1.310e-11         25.0000       
                  1               
  1.865e-07        1.350e-11        1.310e-11         25.0000       
                  1               
  1.866e-07        1.350e-11        1.311e-11         25.0000       
                  1               
  1.867e-07        1.351e-11        1.311e-11         25.0000       
                  1               
  1.868e-07        1.351e-11        1.337e-11         25.0000       
                  1               
  1.869e-07        1.351e-11        1.337e-11         25.0000       
                  1               
  1.870e-07        1.351e-11        1.337e-11         25.0000       
                  1               
  1.871e-07        1.352e-11        1.337e-11         25.0000       
                  1               
  1.872e-07        1.352e-11        1.337e-11         25.0000       
                  1               
  1.873e-07        1.352e-11        1.337e-11         25.0000       
                  1               
  1.874e-07        1.352e-11        1.338e-11         25.0000       
                  1               
  1.875e-07        1.353e-11        1.338e-11         25.0000       
                  1               
  1.876e-07        1.353e-11        1.338e-11         25.0000       
                  1               
  1.877e-07        1.353e-11        1.338e-11         25.0000       
                  1               
  1.878e-07        1.353e-11        1.338e-11         25.0000       
                  1               
  1.879e-07        1.354e-11        1.338e-11         25.0000       
                  1               
  1.880e-07        1.354e-11        1.338e-11         25.0000       
                  1               
  1.881e-07        1.354e-11        1.338e-11         25.0000       
                  1               
  1.882e-07        1.354e-11        1.338e-11         25.0000       
                  1               
  1.883e-07        1.355e-11        1.338e-11         25.0000       
                  1               
  1.884e-07        1.355e-11        1.338e-11         25.0000       
                  1               
  1.885e-07        1.355e-11        1.338e-11         25.0000       
                  1               
  1.886e-07        1.355e-11        1.338e-11         25.0000       
                  1               
  1.887e-07        1.356e-11        1.338e-11         25.0000       
                  1               
  1.888e-07        1.356e-11        1.338e-11         25.0000       
                  1               
  1.889e-07        1.356e-11        1.338e-11         25.0000       
                  1               
  1.890e-07        1.356e-11        1.338e-11         25.0000       
                  1               
  1.891e-07        1.357e-11        1.338e-11         25.0000       
                  1               
  1.892e-07        1.357e-11        1.338e-11         25.0000       
                  1               
  1.893e-07        1.357e-11        1.338e-11         25.0000       
                  1               
  1.894e-07        1.357e-11        1.338e-11         25.0000       
                  1               
  1.895e-07        1.358e-11        1.338e-11         25.0000       
                  1               
  1.896e-07        1.358e-11        1.338e-11         25.0000       
                  1               
  1.897e-07        1.358e-11        1.338e-11         25.0000       
                  1               
  1.898e-07        1.358e-11        1.338e-11         25.0000       
                  1               
  1.899e-07        1.359e-11        1.338e-11         25.0000       
                  1               
  1.900e-07        1.359e-11        1.338e-11         25.0000       
                  1               
  1.901e-07        1.359e-11        1.338e-11         25.0000       
                  1               
  1.902e-07        1.359e-11        1.338e-11         25.0000       
                  1               
  1.903e-07        1.360e-11        1.338e-11         25.0000       
                  1               
  1.904e-07        1.360e-11        1.338e-11         25.0000       
                  1               
  1.905e-07        1.360e-11        1.338e-11         25.0000       
                  1               
  1.906e-07        1.360e-11        1.338e-11         25.0000       
                  1               
  1.907e-07        1.361e-11        1.339e-11         25.0000       
                  1               
  1.908e-07        1.361e-11        1.339e-11         25.0000       
                  1               
  1.909e-07        1.361e-11        1.339e-11         25.0000       
                  1               
  1.910e-07        1.361e-11        1.339e-11         25.0000       
                  1               
  1.911e-07        1.362e-11        1.339e-11         25.0000       
                  1               
  1.912e-07        1.362e-11        1.339e-11         25.0000       
                  1               
  1.913e-07        1.362e-11        1.339e-11         25.0000       
                  1               
  1.914e-07        1.362e-11        1.339e-11         25.0000       
                  1               
  1.915e-07        1.363e-11        1.339e-11         25.0000       
                  1               
  1.916e-07        1.363e-11        1.339e-11         25.0000       
                  1               
  1.917e-07        1.363e-11        1.339e-11         25.0000       
                  1               
  1.918e-07        1.363e-11        1.339e-11         25.0000       
                  1               
  1.919e-07        1.364e-11        1.339e-11         25.0000       
                  1               
  1.920e-07        1.364e-11        1.339e-11         25.0000       
                  1               
  1.921e-07        1.364e-11        1.339e-11         25.0000       
                  1               
  1.922e-07        1.365e-11        1.339e-11         25.0000       
                  1               
  1.923e-07        1.365e-11        1.339e-11         25.0000       
                  1               
  1.924e-07        1.365e-11        1.339e-11         25.0000       
                  1               
  1.925e-07        1.365e-11        1.339e-11         25.0000       
                  1               
  1.926e-07        1.366e-11        1.339e-11         25.0000       
                  1               
  1.927e-07        1.365e-11        1.339e-11         25.0000       
                  1               
  1.928e-07        1.365e-11        1.339e-11         25.0000       
                  1               
  1.929e-07        1.365e-11        1.339e-11         25.0000       
                  1               
  1.930e-07        1.365e-11        1.339e-11         25.0000       
                  1               
  1.931e-07        1.365e-11        1.339e-11         25.0000       
                  1               
  1.932e-07        1.365e-11        1.339e-11         25.0000       
                  1               
  1.933e-07        1.365e-11        1.339e-11         25.0000       
                  1               
  1.934e-07        1.365e-11        1.339e-11         25.0000       
                  1               
  1.935e-07        1.365e-11        1.340e-11         25.0000       
                  1               
  1.936e-07        1.365e-11        1.340e-11         25.0000       
                  1               
  1.937e-07        1.364e-11        1.340e-11         25.0000       
                  1               
  1.938e-07        1.364e-11        1.340e-11         25.0000       
                  1               
  1.939e-07        1.364e-11        1.340e-11         25.0000       
                  1               
  1.940e-07        1.364e-11        1.340e-11         25.0000       
                  1               
  1.941e-07        1.364e-11        1.340e-11         25.0000       
                  1               
  1.942e-07        1.364e-11        1.340e-11         25.0000       
                  1               
  1.943e-07        1.364e-11        1.340e-11         25.0000       
                  1               
  1.944e-07        1.364e-11        1.340e-11         25.0000       
                  1               
  1.945e-07        1.364e-11        1.340e-11         25.0000       
                  1               
  1.946e-07        1.364e-11        1.340e-11         25.0000       
                  1               
  1.947e-07        1.364e-11        1.340e-11         25.0000       
                  1               
  1.948e-07        1.364e-11        1.340e-11         25.0000       
                  1               
  1.949e-07        1.364e-11        1.340e-11         25.0000       
                  1               
  1.950e-07        1.364e-11        1.340e-11         25.0000       
                  1               
  1.951e-07        1.364e-11        1.340e-11         25.0000       
                  1               
  1.952e-07        1.363e-11        1.340e-11         25.0000       
                  1               
  1.953e-07        1.363e-11        1.340e-11         25.0000       
                  1               
  1.954e-07        1.363e-11        1.340e-11         25.0000       
                  1               
  1.955e-07        1.363e-11        1.340e-11         25.0000       
                  1               
  1.956e-07        1.363e-11        1.340e-11         25.0000       
                  1               
  1.957e-07        1.363e-11        1.340e-11         25.0000       
                  1               
  1.958e-07        1.363e-11        1.340e-11         25.0000       
                  1               
  1.959e-07        1.363e-11        1.340e-11         25.0000       
                  1               
  1.960e-07        1.363e-11        1.341e-11         25.0000       
                  1               
  1.961e-07        1.363e-11        1.341e-11         25.0000       
                  1               
  1.962e-07        1.363e-11        1.341e-11         25.0000       
                  1               
  1.963e-07        1.363e-11        1.341e-11         25.0000       
                  1               
  1.964e-07        1.363e-11        1.341e-11         25.0000       
                  1               
  1.965e-07        1.363e-11        1.341e-11         25.0000       
                  1               
  1.966e-07        1.363e-11        1.341e-11         25.0000       
                  1               
  1.967e-07        1.363e-11        1.341e-11         25.0000       
                  1               
  1.968e-07        1.363e-11        1.341e-11         25.0000       
                  1               
  1.969e-07        1.363e-11        1.341e-11         25.0000       
                  1               
  1.970e-07        1.363e-11        1.341e-11         25.0000       
                  1               
  1.971e-07        1.363e-11        1.341e-11         25.0000       
                  1               
  1.972e-07        1.363e-11        1.341e-11         25.0000       
                  1               
  1.973e-07        1.363e-11        1.341e-11         25.0000       
                  1               
  1.974e-07        1.363e-11        1.341e-11         25.0000       
                  1               
  1.975e-07        1.363e-11        1.341e-11         25.0000       
                  1               
  1.976e-07        1.363e-11        1.341e-11         25.0000       
                  1               
  1.977e-07        1.363e-11        1.341e-11         25.0000       
                  1               
  1.978e-07        1.363e-11        1.341e-11         25.0000       
                  1               
  1.979e-07        1.363e-11        1.341e-11         25.0000       
                  1               
  1.980e-07        1.363e-11        1.341e-11         25.0000       
                  1               
  1.981e-07        1.363e-11        1.341e-11         25.0000       
                  1               
  1.982e-07        1.363e-11        1.342e-11         25.0000       
                  1               
  1.983e-07        1.363e-11        1.342e-11         25.0000       
                  1               
  1.984e-07        1.363e-11        1.342e-11         25.0000       
                  1               
  1.985e-07        1.363e-11        1.342e-11         25.0000       
                  1               
  1.986e-07        1.363e-11        1.342e-11         25.0000       
                  1               
  1.987e-07        1.363e-11        1.342e-11         25.0000       
                  1               
  1.988e-07        1.363e-11        1.342e-11         25.0000       
                  1               
  1.989e-07        1.363e-11        1.342e-11         25.0000       
                  1               
  1.990e-07        1.363e-11        1.342e-11         25.0000       
                  1               
  1.991e-07        1.363e-11        1.342e-11         25.0000       
                  1               
  1.992e-07        1.363e-11        1.342e-11         25.0000       
                  1               
  1.993e-07        1.363e-11        1.342e-11         25.0000       
                  1               
  1.994e-07        1.363e-11        1.342e-11         25.0000       
                  1               
  1.995e-07        1.363e-11        1.342e-11         25.0000       
                  1               
  1.996e-07        1.363e-11        1.342e-11         25.0000       
                  1               
  1.997e-07        1.363e-11        1.342e-11         25.0000       
                  1               
  1.998e-07        1.363e-11        1.342e-11         25.0000       
                  1               
  1.999e-07        1.363e-11        1.342e-11         25.0000       
                  1               
  2.000e-07        1.363e-11        1.342e-11         25.0000       
                  1               
