$DATA1 SOURCE='HSPICE' VERSION='J-2014.09 64-BIT'
.TITLE 'connecting a dut inverter with f04 configuration'
 pmos_width_param delay_l_to_h     delay_h_to_l     temper          
                  alter#          
  1.00000e-07      1.09134e-11      1.41856e-11       25.000000     
                  1               
  1.00100e-07      1.09151e-11      1.41820e-11       25.000000     
                  1               
  1.00200e-07      1.09167e-11      1.41784e-11       25.000000     
                  1               
  1.00300e-07      1.09183e-11      1.41749e-11       25.000000     
                  1               
  1.00400e-07      1.09200e-11      1.41713e-11       25.000000     
                  1               
  1.00500e-07      1.09216e-11      1.41678e-11       25.000000     
                  1               
  1.00600e-07      1.09233e-11      1.41642e-11       25.000000     
                  1               
  1.00700e-07      1.09249e-11      1.41607e-11       25.000000     
                  1               
  1.00800e-07      1.09266e-11      1.41572e-11       25.000000     
                  1               
  1.00900e-07      1.09282e-11      1.41537e-11       25.000000     
                  1               
  1.01000e-07      1.09299e-11      1.41502e-11       25.000000     
                  1               
  1.01100e-07      1.09315e-11      1.41467e-11       25.000000     
                  1               
  1.01200e-07      1.09332e-11      1.41433e-11       25.000000     
                  1               
  1.01300e-07      1.09348e-11      1.41398e-11       25.000000     
                  1               
  1.01400e-07      1.09365e-11      1.41363e-11       25.000000     
                  1               
  1.01500e-07      1.09382e-11      1.41329e-11       25.000000     
                  1               
  1.01600e-07      1.09398e-11      1.41295e-11       25.000000     
                  1               
  1.01700e-07      1.09415e-11      1.41260e-11       25.000000     
                  1               
  1.01800e-07      1.09432e-11      1.41226e-11       25.000000     
                  1               
  1.01900e-07      1.09449e-11      1.41192e-11       25.000000     
                  1               
  1.02000e-07      1.09465e-11      1.41158e-11       25.000000     
                  1               
  1.02100e-07      1.09482e-11      1.41124e-11       25.000000     
                  1               
  1.02200e-07      1.09499e-11      1.41091e-11       25.000000     
                  1               
  1.02300e-07      1.09516e-11      1.41057e-11       25.000000     
                  1               
  1.02400e-07      1.09533e-11      1.41023e-11       25.000000     
                  1               
  1.02500e-07      1.09549e-11      1.40990e-11       25.000000     
                  1               
  1.02600e-07      1.09566e-11      1.40956e-11       25.000000     
                  1               
  1.02700e-07      1.09583e-11      1.40923e-11       25.000000     
                  1               
  1.02800e-07      1.09600e-11      1.40890e-11       25.000000     
                  1               
  1.02900e-07      1.09617e-11      1.40857e-11       25.000000     
                  1               
  1.03000e-07      1.09634e-11      1.40824e-11       25.000000     
                  1               
  1.03100e-07      1.09651e-11      1.40791e-11       25.000000     
                  1               
  1.03200e-07      1.09668e-11      1.40758e-11       25.000000     
                  1               
  1.03300e-07      1.09685e-11      1.40725e-11       25.000000     
                  1               
  1.03400e-07      1.09702e-11      1.40693e-11       25.000000     
                  1               
  1.03500e-07      1.09719e-11      1.40660e-11       25.000000     
                  1               
  1.03600e-07      1.09736e-11      1.40628e-11       25.000000     
                  1               
  1.03700e-07      1.09753e-11      1.40595e-11       25.000000     
                  1               
  1.03800e-07      1.09771e-11      1.40563e-11       25.000000     
                  1               
  1.03900e-07      1.09788e-11      1.40531e-11       25.000000     
                  1               
  1.04000e-07      1.09805e-11      1.40499e-11       25.000000     
                  1               
  1.04100e-07      1.09822e-11      1.40467e-11       25.000000     
                  1               
  1.04200e-07      1.09839e-11      1.40435e-11       25.000000     
                  1               
  1.04300e-07      1.09857e-11      1.40403e-11       25.000000     
                  1               
  1.04400e-07      1.09874e-11      1.40371e-11       25.000000     
                  1               
  1.04500e-07      1.09891e-11      1.40339e-11       25.000000     
                  1               
  1.04600e-07      1.09908e-11      1.40308e-11       25.000000     
                  1               
  1.04700e-07      1.09926e-11      1.40276e-11       25.000000     
                  1               
  1.04800e-07      1.09943e-11      1.40245e-11       25.000000     
                  1               
  1.04900e-07      1.09960e-11      1.40214e-11       25.000000     
                  1               
  1.05000e-07      1.09978e-11      1.40182e-11       25.000000     
                  1               
  1.05100e-07      1.09995e-11      1.40151e-11       25.000000     
                  1               
  1.05200e-07      1.10013e-11      1.40120e-11       25.000000     
                  1               
  1.05300e-07      1.10030e-11      1.40089e-11       25.000000     
                  1               
  1.05400e-07      1.10047e-11      1.40058e-11       25.000000     
                  1               
  1.05500e-07      1.10065e-11      1.40027e-11       25.000000     
                  1               
  1.05600e-07      1.10082e-11      1.39997e-11       25.000000     
                  1               
  1.05700e-07      1.10100e-11      1.39966e-11       25.000000     
                  1               
  1.05800e-07      1.10118e-11      1.39935e-11       25.000000     
                  1               
  1.05900e-07      1.10135e-11      1.39905e-11       25.000000     
                  1               
  1.06000e-07      1.10153e-11      1.39875e-11       25.000000     
                  1               
  1.06100e-07      1.10170e-11      1.39844e-11       25.000000     
                  1               
  1.06200e-07      1.10188e-11      1.39814e-11       25.000000     
                  1               
  1.06300e-07      1.10206e-11      1.39784e-11       25.000000     
                  1               
  1.06400e-07      1.10223e-11      1.39754e-11       25.000000     
                  1               
  1.06500e-07      1.10241e-11      1.39724e-11       25.000000     
                  1               
  1.06600e-07      1.10259e-11      1.39694e-11       25.000000     
                  1               
  1.06700e-07      1.10276e-11      1.39664e-11       25.000000     
                  1               
  1.06800e-07      1.10294e-11      1.39634e-11       25.000000     
                  1               
  1.06900e-07      1.10312e-11      1.39605e-11       25.000000     
                  1               
  1.07000e-07      1.10330e-11      1.39575e-11       25.000000     
                  1               
  1.07100e-07      1.10347e-11      1.39546e-11       25.000000     
                  1               
  1.07200e-07      1.10365e-11      1.39516e-11       25.000000     
                  1               
  1.07300e-07      1.10383e-11      1.39487e-11       25.000000     
                  1               
  1.07400e-07      1.10401e-11      1.39458e-11       25.000000     
                  1               
  1.07500e-07      1.10419e-11      1.39428e-11       25.000000     
                  1               
  1.07600e-07      1.10437e-11      1.39399e-11       25.000000     
                  1               
  1.07700e-07      1.10455e-11      1.39370e-11       25.000000     
                  1               
  1.07800e-07      1.10472e-11      1.39341e-11       25.000000     
                  1               
  1.07900e-07      1.10490e-11      1.39313e-11       25.000000     
                  1               
  1.08000e-07      1.10508e-11      1.39284e-11       25.000000     
                  1               
  1.08100e-07      1.10526e-11      1.39255e-11       25.000000     
                  1               
  1.08200e-07      1.10544e-11      1.39226e-11       25.000000     
                  1               
  1.08300e-07      1.10562e-11      1.39198e-11       25.000000     
                  1               
  1.08400e-07      1.10580e-11      1.39169e-11       25.000000     
                  1               
  1.08500e-07      1.10599e-11      1.39141e-11       25.000000     
                  1               
  1.08600e-07      1.10617e-11      1.39113e-11       25.000000     
                  1               
  1.08700e-07      1.10635e-11      1.39084e-11       25.000000     
                  1               
  1.08800e-07      1.10653e-11      1.39056e-11       25.000000     
                  1               
  1.08900e-07      1.10671e-11      1.39028e-11       25.000000     
                  1               
  1.09000e-07      1.10689e-11      1.39000e-11       25.000000     
                  1               
  1.09100e-07      1.10707e-11      1.38972e-11       25.000000     
                  1               
  1.09200e-07      1.10726e-11      1.38944e-11       25.000000     
                  1               
  1.09300e-07      1.10744e-11      1.38917e-11       25.000000     
                  1               
  1.09400e-07      1.10762e-11      1.38889e-11       25.000000     
                  1               
  1.09500e-07      1.10780e-11      1.38861e-11       25.000000     
                  1               
  1.09600e-07      1.10798e-11      1.38834e-11       25.000000     
                  1               
  1.09700e-07      1.10817e-11      1.38806e-11       25.000000     
                  1               
  1.09800e-07      1.10835e-11      1.38779e-11       25.000000     
                  1               
  1.09900e-07      1.10853e-11      1.38752e-11       25.000000     
                  1               
  1.10000e-07      1.10872e-11      1.38724e-11       25.000000     
                  1               
  1.10100e-07      1.10890e-11      1.38697e-11       25.000000     
                  1               
  1.10200e-07      1.10909e-11      1.38670e-11       25.000000     
                  1               
  1.10300e-07      1.10927e-11      1.38643e-11       25.000000     
                  1               
  1.10400e-07      1.10945e-11      1.38616e-11       25.000000     
                  1               
  1.10500e-07      1.10964e-11      1.38589e-11       25.000000     
                  1               
  1.10600e-07      1.10982e-11      1.38562e-11       25.000000     
                  1               
  1.10700e-07      1.11001e-11      1.38535e-11       25.000000     
                  1               
  1.10800e-07      1.11019e-11      1.38509e-11       25.000000     
                  1               
  1.10900e-07      1.11038e-11      1.38482e-11       25.000000     
                  1               
  1.11000e-07      1.11056e-11      1.38456e-11       25.000000     
                  1               
  1.11100e-07      1.11075e-11      1.38429e-11       25.000000     
                  1               
  1.11200e-07      1.11093e-11      1.38403e-11       25.000000     
                  1               
  1.11300e-07      1.11112e-11      1.38376e-11       25.000000     
                  1               
  1.11400e-07      1.11130e-11      1.38350e-11       25.000000     
                  1               
  1.11500e-07      1.11149e-11      1.38324e-11       25.000000     
                  1               
  1.11600e-07      1.11168e-11      1.38298e-11       25.000000     
                  1               
  1.11700e-07      1.11186e-11      1.38272e-11       25.000000     
                  1               
  1.11800e-07      1.11205e-11      1.38246e-11       25.000000     
                  1               
  1.11900e-07      1.11224e-11      1.38220e-11       25.000000     
                  1               
  1.12000e-07      1.11242e-11      1.38194e-11       25.000000     
                  1               
  1.12100e-07      1.11261e-11      1.38168e-11       25.000000     
                  1               
  1.12200e-07      1.11280e-11      1.38143e-11       25.000000     
                  1               
  1.12300e-07      1.11299e-11      1.38117e-11       25.000000     
                  1               
  1.12400e-07      1.11317e-11      1.38091e-11       25.000000     
                  1               
  1.12500e-07      1.11336e-11      1.38066e-11       25.000000     
                  1               
  1.12600e-07      1.11355e-11      1.38041e-11       25.000000     
                  1               
  1.12700e-07      1.11374e-11      1.38015e-11       25.000000     
                  1               
  1.12800e-07      1.11393e-11      1.37990e-11       25.000000     
                  1               
  1.12900e-07      1.11412e-11      1.37965e-11       25.000000     
                  1               
  1.13000e-07      1.11430e-11      1.37940e-11       25.000000     
                  1               
  1.13100e-07      1.11449e-11      1.37914e-11       25.000000     
                  1               
  1.13200e-07      1.11468e-11      1.37889e-11       25.000000     
                  1               
  1.13300e-07      1.11487e-11      1.37864e-11       25.000000     
                  1               
  1.13400e-07      1.11506e-11      1.37840e-11       25.000000     
                  1               
  1.13500e-07      1.11525e-11      1.37815e-11       25.000000     
                  1               
  1.13600e-07      1.11544e-11      1.37790e-11       25.000000     
                  1               
  1.13700e-07      1.11563e-11      1.37765e-11       25.000000     
                  1               
  1.13800e-07      1.11582e-11      1.37741e-11       25.000000     
                  1               
  1.13900e-07      1.11601e-11      1.37716e-11       25.000000     
                  1               
  1.14000e-07      1.11620e-11      1.37692e-11       25.000000     
                  1               
  1.14100e-07      1.11639e-11      1.37667e-11       25.000000     
                  1               
  1.14200e-07      1.11658e-11      1.37643e-11       25.000000     
                  1               
  1.14300e-07      1.11677e-11      1.37618e-11       25.000000     
                  1               
  1.14400e-07      1.11696e-11      1.37594e-11       25.000000     
                  1               
  1.14500e-07      1.11716e-11      1.37570e-11       25.000000     
                  1               
  1.14600e-07      1.11735e-11      1.37546e-11       25.000000     
                  1               
  1.14700e-07      1.11754e-11      1.37522e-11       25.000000     
                  1               
  1.14800e-07      1.11773e-11      1.37498e-11       25.000000     
                  1               
  1.14900e-07      1.11792e-11      1.37474e-11       25.000000     
                  1               
  1.15000e-07      1.11811e-11      1.37450e-11       25.000000     
                  1               
  1.15100e-07      1.11831e-11      1.37426e-11       25.000000     
                  1               
  1.15200e-07      1.11850e-11      1.37403e-11       25.000000     
                  1               
  1.15300e-07      1.11869e-11      1.37379e-11       25.000000     
                  1               
  1.15400e-07      1.11888e-11      1.37355e-11       25.000000     
                  1               
  1.15500e-07      1.11908e-11      1.37332e-11       25.000000     
                  1               
  1.15600e-07      1.11927e-11      1.37308e-11       25.000000     
                  1               
  1.15700e-07      1.11946e-11      1.37285e-11       25.000000     
                  1               
  1.15800e-07      1.11966e-11      1.37262e-11       25.000000     
                  1               
  1.15900e-07      1.11985e-11      1.37238e-11       25.000000     
                  1               
  1.16000e-07      1.12004e-11      1.37215e-11       25.000000     
                  1               
  1.16100e-07      1.12024e-11      1.37192e-11       25.000000     
                  1               
  1.16200e-07      1.12043e-11      1.37169e-11       25.000000     
                  1               
  1.16300e-07      1.12063e-11      1.37146e-11       25.000000     
                  1               
  1.16400e-07      1.12082e-11      1.37123e-11       25.000000     
                  1               
  1.16500e-07      1.12101e-11      1.37100e-11       25.000000     
                  1               
  1.16600e-07      1.12121e-11      1.37077e-11       25.000000     
                  1               
  1.16700e-07      1.12140e-11      1.37054e-11       25.000000     
                  1               
  1.16800e-07      1.12160e-11      1.37031e-11       25.000000     
                  1               
  1.16900e-07      1.12179e-11      1.37009e-11       25.000000     
                  1               
  1.17000e-07      1.12199e-11      1.36986e-11       25.000000     
                  1               
  1.17100e-07      1.12218e-11      1.36964e-11       25.000000     
                  1               
  1.17200e-07      1.12238e-11      1.36941e-11       25.000000     
                  1               
  1.17300e-07      1.12258e-11      1.36919e-11       25.000000     
                  1               
  1.17400e-07      1.12277e-11      1.36896e-11       25.000000     
                  1               
  1.17500e-07      1.12297e-11      1.36874e-11       25.000000     
                  1               
  1.17600e-07      1.12316e-11      1.36852e-11       25.000000     
                  1               
  1.17700e-07      1.12336e-11      1.36829e-11       25.000000     
                  1               
  1.17800e-07      1.12356e-11      1.36807e-11       25.000000     
                  1               
  1.17900e-07      1.12375e-11      1.36785e-11       25.000000     
                  1               
  1.18000e-07      1.12395e-11      1.36763e-11       25.000000     
                  1               
  1.18100e-07      1.12415e-11      1.36741e-11       25.000000     
                  1               
  1.18200e-07      1.12434e-11      1.36719e-11       25.000000     
                  1               
  1.18300e-07      1.12454e-11      1.36697e-11       25.000000     
                  1               
  1.18400e-07      1.12474e-11      1.36676e-11       25.000000     
                  1               
  1.18500e-07      1.12494e-11      1.36654e-11       25.000000     
                  1               
  1.18600e-07      1.12513e-11      1.36632e-11       25.000000     
                  1               
  1.18700e-07      1.12533e-11      1.36610e-11       25.000000     
                  1               
  1.18800e-07      1.12553e-11      1.36589e-11       25.000000     
                  1               
  1.18900e-07      1.12573e-11      1.36567e-11       25.000000     
                  1               
  1.19000e-07      1.12593e-11      1.36546e-11       25.000000     
                  1               
  1.19100e-07      1.12613e-11      1.36524e-11       25.000000     
                  1               
  1.19200e-07      1.12632e-11      1.36503e-11       25.000000     
                  1               
  1.19300e-07      1.12652e-11      1.36482e-11       25.000000     
                  1               
  1.19400e-07      1.12672e-11      1.36461e-11       25.000000     
                  1               
  1.19500e-07      1.12692e-11      1.36439e-11       25.000000     
                  1               
  1.19600e-07      1.12712e-11      1.36418e-11       25.000000     
                  1               
  1.19700e-07      1.12732e-11      1.36397e-11       25.000000     
                  1               
  1.19800e-07      1.12752e-11      1.36376e-11       25.000000     
                  1               
  1.19900e-07      1.12772e-11      1.36355e-11       25.000000     
                  1               
  1.20000e-07      1.12792e-11      1.36334e-11       25.000000     
                  1               
  1.20100e-07      1.12812e-11      1.36313e-11       25.000000     
                  1               
  1.20200e-07      1.12832e-11      1.36293e-11       25.000000     
                  1               
  1.20300e-07      1.12852e-11      1.36272e-11       25.000000     
                  1               
  1.20400e-07      1.12872e-11      1.36251e-11       25.000000     
                  1               
  1.20500e-07      1.12892e-11      1.36231e-11       25.000000     
                  1               
  1.20600e-07      1.12912e-11      1.36210e-11       25.000000     
                  1               
  1.20700e-07      1.12932e-11      1.36189e-11       25.000000     
                  1               
  1.20800e-07      1.12952e-11      1.36169e-11       25.000000     
                  1               
  1.20900e-07      1.12972e-11      1.36149e-11       25.000000     
                  1               
  1.21000e-07      1.12992e-11      1.36128e-11       25.000000     
                  1               
  1.21100e-07      1.13013e-11      1.36108e-11       25.000000     
                  1               
  1.21200e-07      1.13033e-11      1.36088e-11       25.000000     
                  1               
  1.21300e-07      1.13053e-11      1.36067e-11       25.000000     
                  1               
  1.21400e-07      1.13073e-11      1.36047e-11       25.000000     
                  1               
  1.21500e-07      1.13093e-11      1.36027e-11       25.000000     
                  1               
  1.21600e-07      1.13113e-11      1.36007e-11       25.000000     
                  1               
  1.21700e-07      1.13134e-11      1.35987e-11       25.000000     
                  1               
  1.21800e-07      1.13154e-11      1.35967e-11       25.000000     
                  1               
  1.21900e-07      1.13174e-11      1.35947e-11       25.000000     
                  1               
  1.22000e-07      1.13194e-11      1.35927e-11       25.000000     
                  1               
  1.22100e-07      1.13215e-11      1.35908e-11       25.000000     
                  1               
  1.22200e-07      1.13235e-11      1.35888e-11       25.000000     
                  1               
  1.22300e-07      1.13255e-11      1.35868e-11       25.000000     
                  1               
  1.22400e-07      1.13276e-11      1.35849e-11       25.000000     
                  1               
  1.22500e-07      1.13296e-11      1.35829e-11       25.000000     
                  1               
  1.22600e-07      1.13316e-11      1.35809e-11       25.000000     
                  1               
  1.22700e-07      1.13337e-11      1.35790e-11       25.000000     
                  1               
  1.22800e-07      1.13357e-11      1.35770e-11       25.000000     
                  1               
  1.22900e-07      1.13377e-11      1.35751e-11       25.000000     
                  1               
  1.23000e-07      1.13398e-11      1.35732e-11       25.000000     
                  1               
  1.23100e-07      1.13418e-11      1.35712e-11       25.000000     
                  1               
  1.23200e-07      1.13439e-11      1.35693e-11       25.000000     
                  1               
  1.23300e-07      1.13459e-11      1.35674e-11       25.000000     
                  1               
  1.23400e-07      1.13480e-11      1.35655e-11       25.000000     
                  1               
  1.23500e-07      1.13500e-11      1.35636e-11       25.000000     
                  1               
  1.23600e-07      1.13521e-11      1.35617e-11       25.000000     
                  1               
  1.23700e-07      1.13541e-11      1.35598e-11       25.000000     
                  1               
  1.23800e-07      1.13562e-11      1.35579e-11       25.000000     
                  1               
  1.23900e-07      1.13582e-11      1.35560e-11       25.000000     
                  1               
  1.24000e-07      1.13603e-11      1.35541e-11       25.000000     
                  1               
  1.24100e-07      1.13623e-11      1.35522e-11       25.000000     
                  1               
  1.24200e-07      1.13644e-11      1.35504e-11       25.000000     
                  1               
  1.24300e-07      1.13664e-11      1.35485e-11       25.000000     
                  1               
  1.24400e-07      1.13685e-11      1.35466e-11       25.000000     
                  1               
  1.24500e-07      1.13705e-11      1.35448e-11       25.000000     
                  1               
  1.24600e-07      1.13726e-11      1.35429e-11       25.000000     
                  1               
  1.24700e-07      1.13747e-11      1.35411e-11       25.000000     
                  1               
  1.24800e-07      1.13767e-11      1.35392e-11       25.000000     
                  1               
  1.24900e-07      1.13788e-11      1.35374e-11       25.000000     
                  1               
  1.25000e-07      1.13809e-11      1.35355e-11       25.000000     
                  1               
  1.25100e-07      1.13829e-11      1.35337e-11       25.000000     
                  1               
  1.25200e-07      1.13850e-11      1.35319e-11       25.000000     
                  1               
  1.25300e-07      1.13871e-11      1.35301e-11       25.000000     
                  1               
  1.25400e-07      1.13891e-11      1.35282e-11       25.000000     
                  1               
  1.25500e-07      1.13912e-11      1.35264e-11       25.000000     
                  1               
  1.25600e-07      1.13933e-11      1.35246e-11       25.000000     
                  1               
  1.25700e-07      1.13954e-11      1.35228e-11       25.000000     
                  1               
  1.25800e-07      1.13974e-11      1.35210e-11       25.000000     
                  1               
  1.25900e-07      1.13995e-11      1.35192e-11       25.000000     
                  1               
  1.26000e-07      1.14016e-11      1.35174e-11       25.000000     
                  1               
  1.26100e-07      1.14037e-11      1.35157e-11       25.000000     
                  1               
  1.26200e-07      1.14058e-11      1.35139e-11       25.000000     
                  1               
  1.26300e-07      1.14079e-11      1.35121e-11       25.000000     
                  1               
  1.26400e-07      1.14099e-11      1.35103e-11       25.000000     
                  1               
  1.26500e-07      1.14120e-11      1.35086e-11       25.000000     
                  1               
  1.26600e-07      1.14141e-11      1.35068e-11       25.000000     
                  1               
  1.26700e-07      1.14162e-11      1.35050e-11       25.000000     
                  1               
  1.26800e-07      1.14183e-11      1.35033e-11       25.000000     
                  1               
  1.26900e-07      1.14204e-11      1.35015e-11       25.000000     
                  1               
  1.27000e-07      1.14225e-11      1.34998e-11       25.000000     
                  1               
  1.27100e-07      1.14246e-11      1.34981e-11       25.000000     
                  1               
  1.27200e-07      1.14267e-11      1.34963e-11       25.000000     
                  1               
  1.27300e-07      1.14288e-11      1.34946e-11       25.000000     
                  1               
  1.27400e-07      1.14309e-11      1.34929e-11       25.000000     
                  1               
  1.27500e-07      1.14329e-11      1.34912e-11       25.000000     
                  1               
  1.27600e-07      1.14351e-11      1.34894e-11       25.000000     
                  1               
  1.27700e-07      1.14372e-11      1.34877e-11       25.000000     
                  1               
  1.27800e-07      1.14393e-11      1.34860e-11       25.000000     
                  1               
  1.27900e-07      1.14414e-11      1.34843e-11       25.000000     
                  1               
  1.28000e-07      1.14435e-11      1.34826e-11       25.000000     
                  1               
  1.28100e-07      1.14456e-11      1.34809e-11       25.000000     
                  1               
  1.28200e-07      1.14477e-11      1.34792e-11       25.000000     
                  1               
  1.28300e-07      1.14498e-11      1.34776e-11       25.000000     
                  1               
  1.28400e-07      1.14519e-11      1.34759e-11       25.000000     
                  1               
  1.28500e-07      1.14540e-11      1.34742e-11       25.000000     
                  1               
  1.28600e-07      1.14561e-11      1.34725e-11       25.000000     
                  1               
  1.28700e-07      1.14582e-11      1.34709e-11       25.000000     
                  1               
  1.28800e-07      1.14603e-11      1.34692e-11       25.000000     
                  1               
  1.28900e-07      1.14625e-11      1.34675e-11       25.000000     
                  1               
  1.29000e-07      1.14646e-11      1.34659e-11       25.000000     
                  1               
  1.29100e-07      1.14667e-11      1.34642e-11       25.000000     
                  1               
  1.29200e-07      1.14688e-11      1.34626e-11       25.000000     
                  1               
  1.29300e-07      1.14709e-11      1.34609e-11       25.000000     
                  1               
  1.29400e-07      1.14730e-11      1.34593e-11       25.000000     
                  1               
  1.29500e-07      1.14752e-11      1.34577e-11       25.000000     
                  1               
  1.29600e-07      1.14773e-11      1.34560e-11       25.000000     
                  1               
  1.29700e-07      1.14794e-11      1.34544e-11       25.000000     
                  1               
  1.29800e-07      1.14815e-11      1.34528e-11       25.000000     
                  1               
  1.29900e-07      1.14837e-11      1.34512e-11       25.000000     
                  1               
  1.30000e-07      1.14858e-11      1.34496e-11       25.000000     
                  1               
  1.30100e-07      1.14879e-11      1.34480e-11       25.000000     
                  1               
  1.30200e-07      1.14901e-11      1.34463e-11       25.000000     
                  1               
  1.30300e-07      1.14922e-11      1.34447e-11       25.000000     
                  1               
  1.30400e-07      1.14943e-11      1.34432e-11       25.000000     
                  1               
  1.30500e-07      1.14965e-11      1.34416e-11       25.000000     
                  1               
  1.30600e-07      1.14986e-11      1.34400e-11       25.000000     
                  1               
  1.30700e-07      1.15007e-11      1.34384e-11       25.000000     
                  1               
  1.30800e-07      1.15029e-11      1.34368e-11       25.000000     
                  1               
  1.30900e-07      1.15050e-11      1.34352e-11       25.000000     
                  1               
  1.31000e-07      1.15071e-11      1.34337e-11       25.000000     
                  1               
  1.31100e-07      1.15093e-11      1.34321e-11       25.000000     
                  1               
  1.31200e-07      1.15114e-11      1.34305e-11       25.000000     
                  1               
  1.31300e-07      1.15136e-11      1.34290e-11       25.000000     
                  1               
  1.31400e-07      1.15157e-11      1.34274e-11       25.000000     
                  1               
  1.31500e-07      1.15179e-11      1.34259e-11       25.000000     
                  1               
  1.31600e-07      1.15200e-11      1.34243e-11       25.000000     
                  1               
  1.31700e-07      1.15221e-11      1.34228e-11       25.000000     
                  1               
  1.31800e-07      1.15243e-11      1.34212e-11       25.000000     
                  1               
  1.31900e-07      1.15264e-11      1.34197e-11       25.000000     
                  1               
  1.32000e-07      1.15286e-11      1.34182e-11       25.000000     
                  1               
  1.32100e-07      1.15308e-11      1.34166e-11       25.000000     
                  1               
  1.32200e-07      1.15329e-11      1.34151e-11       25.000000     
                  1               
  1.32300e-07      1.15351e-11      1.34136e-11       25.000000     
                  1               
  1.32400e-07      1.15372e-11      1.34121e-11       25.000000     
                  1               
  1.32500e-07      1.15394e-11      1.34106e-11       25.000000     
                  1               
  1.32600e-07      1.15415e-11      1.34091e-11       25.000000     
                  1               
  1.32700e-07      1.15437e-11      1.34076e-11       25.000000     
                  1               
  1.32800e-07      1.15458e-11      1.34061e-11       25.000000     
                  1               
  1.32900e-07      1.15480e-11      1.34046e-11       25.000000     
                  1               
  1.33000e-07      1.15502e-11      1.34031e-11       25.000000     
                  1               
  1.33100e-07      1.15523e-11      1.34016e-11       25.000000     
                  1               
  1.33200e-07      1.15545e-11      1.34001e-11       25.000000     
                  1               
  1.33300e-07      1.15567e-11      1.33986e-11       25.000000     
                  1               
  1.33400e-07      1.15588e-11      1.33971e-11       25.000000     
                  1               
  1.33500e-07      1.15610e-11      1.33957e-11       25.000000     
                  1               
  1.33600e-07      1.15632e-11      1.33942e-11       25.000000     
                  1               
  1.33700e-07      1.15653e-11      1.33927e-11       25.000000     
                  1               
  1.33800e-07      1.15675e-11      1.33913e-11       25.000000     
                  1               
  1.33900e-07      1.15697e-11      1.33898e-11       25.000000     
                  1               
  1.34000e-07      1.15718e-11      1.33884e-11       25.000000     
                  1               
  1.34100e-07      1.15740e-11      1.33869e-11       25.000000     
                  1               
  1.34200e-07      1.15762e-11      1.33855e-11       25.000000     
                  1               
  1.34300e-07      1.15784e-11      1.33840e-11       25.000000     
                  1               
  1.34400e-07      1.15805e-11      1.33826e-11       25.000000     
                  1               
  1.34500e-07      1.15827e-11      1.33812e-11       25.000000     
                  1               
  1.34600e-07      1.15849e-11      1.33797e-11       25.000000     
                  1               
  1.34700e-07      1.15871e-11      1.33783e-11       25.000000     
                  1               
  1.34800e-07      1.15893e-11      1.33769e-11       25.000000     
                  1               
  1.34900e-07      1.15914e-11      1.33754e-11       25.000000     
                  1               
  1.35000e-07      1.15936e-11      1.33740e-11       25.000000     
                  1               
  1.35100e-07      1.15958e-11      1.33726e-11       25.000000     
                  1               
  1.35200e-07      1.15980e-11      1.33712e-11       25.000000     
                  1               
  1.35300e-07      1.16002e-11      1.33698e-11       25.000000     
                  1               
  1.35400e-07      1.16024e-11      1.33684e-11       25.000000     
                  1               
  1.35500e-07      1.16046e-11      1.33670e-11       25.000000     
                  1               
  1.35600e-07      1.16067e-11      1.33656e-11       25.000000     
                  1               
  1.35700e-07      1.16089e-11      1.33642e-11       25.000000     
                  1               
  1.35800e-07      1.16111e-11      1.33628e-11       25.000000     
                  1               
  1.35900e-07      1.16133e-11      1.33614e-11       25.000000     
                  1               
  1.36000e-07      1.16155e-11      1.33601e-11       25.000000     
                  1               
  1.36100e-07      1.16177e-11      1.33587e-11       25.000000     
                  1               
  1.36200e-07      1.16199e-11      1.33573e-11       25.000000     
                  1               
  1.36300e-07      1.16221e-11      1.33559e-11       25.000000     
                  1               
  1.36400e-07      1.16243e-11      1.33546e-11       25.000000     
                  1               
  1.36500e-07      1.16265e-11      1.33532e-11       25.000000     
                  1               
  1.36600e-07      1.16287e-11      1.33519e-11       25.000000     
                  1               
  1.36700e-07      1.16309e-11      1.33505e-11       25.000000     
                  1               
  1.36800e-07      1.16331e-11      1.33491e-11       25.000000     
                  1               
  1.36900e-07      1.16353e-11      1.33478e-11       25.000000     
                  1               
  1.37000e-07      1.16375e-11      1.33465e-11       25.000000     
                  1               
  1.37100e-07      1.16397e-11      1.33451e-11       25.000000     
                  1               
  1.37200e-07      1.16419e-11      1.33438e-11       25.000000     
                  1               
  1.37300e-07      1.16441e-11      1.33424e-11       25.000000     
                  1               
  1.37400e-07      1.16463e-11      1.33411e-11       25.000000     
                  1               
  1.37500e-07      1.16485e-11      1.33398e-11       25.000000     
                  1               
  1.37600e-07      1.16507e-11      1.33385e-11       25.000000     
                  1               
  1.37700e-07      1.16529e-11      1.33371e-11       25.000000     
                  1               
  1.37800e-07      1.16552e-11      1.33358e-11       25.000000     
                  1               
  1.37900e-07      1.16574e-11      1.33345e-11       25.000000     
                  1               
  1.38000e-07      1.16596e-11      1.33332e-11       25.000000     
                  1               
  1.38100e-07      1.16618e-11      1.33319e-11       25.000000     
                  1               
  1.38200e-07      1.16640e-11      1.33306e-11       25.000000     
                  1               
  1.38300e-07      1.16662e-11      1.33293e-11       25.000000     
                  1               
  1.38400e-07      1.16684e-11      1.33280e-11       25.000000     
                  1               
  1.38500e-07      1.16707e-11      1.33267e-11       25.000000     
                  1               
  1.38600e-07      1.16729e-11      1.33254e-11       25.000000     
                  1               
  1.38700e-07      1.16751e-11      1.33241e-11       25.000000     
                  1               
  1.38800e-07      1.16773e-11      1.33228e-11       25.000000     
                  1               
  1.38900e-07      1.16795e-11      1.33215e-11       25.000000     
                  1               
  1.39000e-07      1.16818e-11      1.33203e-11       25.000000     
                  1               
  1.39100e-07      1.16840e-11      1.33190e-11       25.000000     
                  1               
  1.39200e-07      1.16862e-11      1.33177e-11       25.000000     
                  1               
  1.39300e-07      1.16884e-11      1.33165e-11       25.000000     
                  1               
  1.39400e-07      1.16907e-11      1.33152e-11       25.000000     
                  1               
  1.39500e-07      1.16929e-11      1.33139e-11       25.000000     
                  1               
  1.39600e-07      1.16951e-11      1.33127e-11       25.000000     
                  1               
  1.39700e-07      1.16974e-11      1.33114e-11       25.000000     
                  1               
  1.39800e-07      1.16996e-11      1.33102e-11       25.000000     
                  1               
  1.39900e-07      1.17018e-11      1.33089e-11       25.000000     
                  1               
  1.40000e-07      1.17040e-11      1.33077e-11       25.000000     
                  1               
  1.40100e-07      1.17063e-11      1.33064e-11       25.000000     
                  1               
  1.40200e-07      1.17085e-11      1.33052e-11       25.000000     
                  1               
  1.40300e-07      1.17107e-11      1.33040e-11       25.000000     
                  1               
  1.40400e-07      1.17130e-11      1.33027e-11       25.000000     
                  1               
  1.40500e-07      1.17152e-11      1.33015e-11       25.000000     
                  1               
  1.40600e-07      1.17175e-11      1.33003e-11       25.000000     
                  1               
  1.40700e-07      1.17197e-11      1.32991e-11       25.000000     
                  1               
  1.40800e-07      1.17219e-11      1.32978e-11       25.000000     
                  1               
  1.40900e-07      1.17242e-11      1.32966e-11       25.000000     
                  1               
  1.41000e-07      1.17264e-11      1.32954e-11       25.000000     
                  1               
  1.41100e-07      1.17287e-11      1.32942e-11       25.000000     
                  1               
  1.41200e-07      1.17309e-11      1.32930e-11       25.000000     
                  1               
  1.41300e-07      1.17331e-11      1.32918e-11       25.000000     
                  1               
  1.41400e-07      1.17354e-11      1.32906e-11       25.000000     
                  1               
  1.41500e-07      1.17376e-11      1.32894e-11       25.000000     
                  1               
  1.41600e-07      1.17399e-11      1.32882e-11       25.000000     
                  1               
  1.41700e-07      1.17421e-11      1.32870e-11       25.000000     
                  1               
  1.41800e-07      1.17444e-11      1.32858e-11       25.000000     
                  1               
  1.41900e-07      1.17466e-11      1.32847e-11       25.000000     
                  1               
  1.42000e-07      1.17489e-11      1.32835e-11       25.000000     
                  1               
  1.42100e-07      1.17511e-11      1.32823e-11       25.000000     
                  1               
  1.42200e-07      1.17534e-11      1.32811e-11       25.000000     
                  1               
  1.42300e-07      1.17556e-11      1.32800e-11       25.000000     
                  1               
  1.42400e-07      1.17579e-11      1.32788e-11       25.000000     
                  1               
  1.42500e-07      1.17601e-11      1.32776e-11       25.000000     
                  1               
  1.42600e-07      1.17624e-11      1.32765e-11       25.000000     
                  1               
  1.42700e-07      1.17647e-11      1.32753e-11       25.000000     
                  1               
  1.42800e-07      1.17669e-11      1.32741e-11       25.000000     
                  1               
  1.42900e-07      1.17692e-11      1.32730e-11       25.000000     
                  1               
  1.43000e-07      1.17714e-11      1.32718e-11       25.000000     
                  1               
  1.43100e-07      1.17737e-11      1.32707e-11       25.000000     
                  1               
  1.43200e-07      1.17759e-11      1.32695e-11       25.000000     
                  1               
  1.43300e-07      1.17782e-11      1.32684e-11       25.000000     
                  1               
  1.43400e-07      1.17805e-11      1.32673e-11       25.000000     
                  1               
  1.43500e-07      1.17827e-11      1.32661e-11       25.000000     
                  1               
  1.43600e-07      1.17850e-11      1.32650e-11       25.000000     
                  1               
  1.43700e-07      1.17873e-11      1.32639e-11       25.000000     
                  1               
  1.43800e-07      1.17895e-11      1.32627e-11       25.000000     
                  1               
  1.43900e-07      1.17918e-11      1.32616e-11       25.000000     
                  1               
  1.44000e-07      1.17941e-11      1.32605e-11       25.000000     
                  1               
  1.44100e-07      1.17963e-11      1.32594e-11       25.000000     
                  1               
  1.44200e-07      1.17986e-11      1.32583e-11       25.000000     
                  1               
  1.44300e-07      1.18009e-11      1.32571e-11       25.000000     
                  1               
  1.44400e-07      1.18031e-11      1.32560e-11       25.000000     
                  1               
  1.44500e-07      1.18054e-11      1.32549e-11       25.000000     
                  1               
  1.44600e-07      1.18077e-11      1.32538e-11       25.000000     
                  1               
  1.44700e-07      1.18100e-11      1.32527e-11       25.000000     
                  1               
  1.44800e-07      1.18122e-11      1.32516e-11       25.000000     
                  1               
  1.44900e-07      1.18145e-11      1.32505e-11       25.000000     
                  1               
  1.45000e-07      1.18168e-11      1.32494e-11       25.000000     
                  1               
  1.45100e-07      1.18191e-11      1.32484e-11       25.000000     
                  1               
  1.45200e-07      1.18213e-11      1.32473e-11       25.000000     
                  1               
  1.45300e-07      1.18236e-11      1.32462e-11       25.000000     
                  1               
  1.45400e-07      1.18259e-11      1.32451e-11       25.000000     
                  1               
  1.45500e-07      1.18282e-11      1.32440e-11       25.000000     
                  1               
  1.45600e-07      1.18305e-11      1.32430e-11       25.000000     
                  1               
  1.45700e-07      1.18327e-11      1.32419e-11       25.000000     
                  1               
  1.45800e-07      1.18350e-11      1.32408e-11       25.000000     
                  1               
  1.45900e-07      1.18373e-11      1.32398e-11       25.000000     
                  1               
  1.46000e-07      1.18396e-11      1.32387e-11       25.000000     
                  1               
  1.46100e-07      1.18419e-11      1.32376e-11       25.000000     
                  1               
  1.46200e-07      1.18442e-11      1.32366e-11       25.000000     
                  1               
  1.46300e-07      1.18465e-11      1.32355e-11       25.000000     
                  1               
  1.46400e-07      1.18487e-11      1.32345e-11       25.000000     
                  1               
  1.46500e-07      1.18510e-11      1.32334e-11       25.000000     
                  1               
  1.46600e-07      1.18533e-11      1.32324e-11       25.000000     
                  1               
  1.46700e-07      1.18556e-11      1.32313e-11       25.000000     
                  1               
  1.46800e-07      1.18579e-11      1.32303e-11       25.000000     
                  1               
  1.46900e-07      1.18602e-11      1.32292e-11       25.000000     
                  1               
  1.47000e-07      1.18625e-11      1.32282e-11       25.000000     
                  1               
  1.47100e-07      1.18648e-11      1.32272e-11       25.000000     
                  1               
  1.47200e-07      1.18671e-11      1.32262e-11       25.000000     
                  1               
  1.47300e-07      1.18694e-11      1.32251e-11       25.000000     
                  1               
  1.47400e-07      1.18717e-11      1.32241e-11       25.000000     
                  1               
  1.47500e-07      1.18740e-11      1.32231e-11       25.000000     
                  1               
  1.47600e-07      1.18763e-11      1.32221e-11       25.000000     
                  1               
  1.47700e-07      1.18786e-11      1.32210e-11       25.000000     
                  1               
  1.47800e-07      1.18809e-11      1.32200e-11       25.000000     
                  1               
  1.47900e-07      1.18832e-11      1.32190e-11       25.000000     
                  1               
  1.48000e-07      1.18855e-11      1.32180e-11       25.000000     
                  1               
  1.48100e-07      1.18878e-11      1.32170e-11       25.000000     
                  1               
  1.48200e-07      1.18901e-11      1.32160e-11       25.000000     
                  1               
  1.48300e-07      1.18924e-11      1.32150e-11       25.000000     
                  1               
  1.48400e-07      1.18947e-11      1.32140e-11       25.000000     
                  1               
  1.48500e-07      1.18970e-11      1.32130e-11       25.000000     
                  1               
  1.48600e-07      1.18993e-11      1.32120e-11       25.000000     
                  1               
  1.48700e-07      1.19016e-11      1.32110e-11       25.000000     
                  1               
  1.48800e-07      1.19039e-11      1.32100e-11       25.000000     
                  1               
  1.48900e-07      1.19062e-11      1.32091e-11       25.000000     
                  1               
  1.49000e-07      1.19085e-11      1.32081e-11       25.000000     
                  1               
  1.49100e-07      1.19108e-11      1.32071e-11       25.000000     
                  1               
  1.49200e-07      1.19131e-11      1.32061e-11       25.000000     
                  1               
  1.49300e-07      1.19154e-11      1.32052e-11       25.000000     
                  1               
  1.49400e-07      1.19177e-11      1.32042e-11       25.000000     
                  1               
  1.49500e-07      1.19201e-11      1.32032e-11       25.000000     
                  1               
  1.49600e-07      1.19224e-11      1.32022e-11       25.000000     
                  1               
  1.49700e-07      1.19247e-11      1.32013e-11       25.000000     
                  1               
  1.49800e-07      1.19270e-11      1.32003e-11       25.000000     
                  1               
  1.49900e-07      1.19293e-11      1.31994e-11       25.000000     
                  1               
  1.50000e-07      1.19316e-11      1.31984e-11       25.000000     
                  1               
  1.50100e-07      1.19339e-11      1.31975e-11       25.000000     
                  1               
  1.50200e-07      1.19363e-11      1.31965e-11       25.000000     
                  1               
  1.50300e-07      1.19386e-11      1.31956e-11       25.000000     
                  1               
  1.50400e-07      1.19409e-11      1.31946e-11       25.000000     
                  1               
  1.50500e-07      1.19432e-11      1.31937e-11       25.000000     
                  1               
  1.50600e-07      1.19455e-11      1.31927e-11       25.000000     
                  1               
  1.50700e-07      1.19479e-11      1.31918e-11       25.000000     
                  1               
  1.50800e-07      1.19502e-11      1.31909e-11       25.000000     
                  1               
  1.50900e-07      1.19525e-11      1.31899e-11       25.000000     
                  1               
  1.51000e-07      1.19548e-11      1.31890e-11       25.000000     
                  1               
  1.51100e-07      1.19572e-11      1.31881e-11       25.000000     
                  1               
  1.51200e-07      1.19595e-11      1.31871e-11       25.000000     
                  1               
  1.51300e-07      1.19618e-11      1.31862e-11       25.000000     
                  1               
  1.51400e-07      1.19641e-11      1.31853e-11       25.000000     
                  1               
  1.51500e-07      1.19665e-11      1.31844e-11       25.000000     
                  1               
  1.51600e-07      1.19688e-11      1.31835e-11       25.000000     
                  1               
  1.51700e-07      1.19711e-11      1.31825e-11       25.000000     
                  1               
  1.51800e-07      1.19734e-11      1.31816e-11       25.000000     
                  1               
  1.51900e-07      1.19758e-11      1.31807e-11       25.000000     
                  1               
  1.52000e-07      1.19781e-11      1.31798e-11       25.000000     
                  1               
  1.52100e-07      1.19804e-11      1.31789e-11       25.000000     
                  1               
  1.52200e-07      1.19828e-11      1.31780e-11       25.000000     
                  1               
  1.52300e-07      1.19851e-11      1.31771e-11       25.000000     
                  1               
  1.52400e-07      1.19874e-11      1.31762e-11       25.000000     
                  1               
  1.52500e-07      1.19898e-11      1.31753e-11       25.000000     
                  1               
  1.52600e-07      1.19921e-11      1.31744e-11       25.000000     
                  1               
  1.52700e-07      1.19944e-11      1.31735e-11       25.000000     
                  1               
  1.52800e-07      1.19968e-11      1.31727e-11       25.000000     
                  1               
  1.52900e-07      1.19991e-11      1.31718e-11       25.000000     
                  1               
  1.53000e-07      1.20015e-11      1.31709e-11       25.000000     
                  1               
  1.53100e-07      1.20038e-11      1.31700e-11       25.000000     
                  1               
  1.53200e-07      1.20061e-11      1.31691e-11       25.000000     
                  1               
  1.53300e-07      1.20085e-11      1.31683e-11       25.000000     
                  1               
  1.53400e-07      1.20108e-11      1.31674e-11       25.000000     
                  1               
  1.53500e-07      1.20132e-11      1.31665e-11       25.000000     
                  1               
  1.53600e-07      1.20155e-11      1.31657e-11       25.000000     
                  1               
  1.53700e-07      1.20178e-11      1.31648e-11       25.000000     
                  1               
  1.53800e-07      1.20202e-11      1.31639e-11       25.000000     
                  1               
  1.53900e-07      1.20225e-11      1.31631e-11       25.000000     
                  1               
  1.54000e-07      1.20249e-11      1.31622e-11       25.000000     
                  1               
  1.54100e-07      1.20272e-11      1.31614e-11       25.000000     
                  1               
  1.54200e-07      1.20296e-11      1.31605e-11       25.000000     
                  1               
  1.54300e-07      1.20319e-11      1.31596e-11       25.000000     
                  1               
  1.54400e-07      1.20343e-11      1.31588e-11       25.000000     
                  1               
  1.54500e-07      1.20366e-11      1.31580e-11       25.000000     
                  1               
  1.54600e-07      1.20390e-11      1.31571e-11       25.000000     
                  1               
  1.54700e-07      1.20413e-11      1.31563e-11       25.000000     
                  1               
  1.54800e-07      1.20437e-11      1.31554e-11       25.000000     
                  1               
  1.54900e-07      1.20460e-11      1.31546e-11       25.000000     
                  1               
  1.55000e-07      1.20484e-11      1.31538e-11       25.000000     
                  1               
  1.55100e-07      1.20507e-11      1.31529e-11       25.000000     
                  1               
  1.55200e-07      1.20531e-11      1.31521e-11       25.000000     
                  1               
  1.55300e-07      1.20554e-11      1.31513e-11       25.000000     
                  1               
  1.55400e-07      1.20578e-11      1.31504e-11       25.000000     
                  1               
  1.55500e-07      1.20601e-11      1.31496e-11       25.000000     
                  1               
  1.55600e-07      1.20625e-11      1.31488e-11       25.000000     
                  1               
  1.55700e-07      1.20648e-11      1.31480e-11       25.000000     
                  1               
  1.55800e-07      1.20672e-11      1.31472e-11       25.000000     
                  1               
  1.55900e-07      1.20696e-11      1.31463e-11       25.000000     
                  1               
  1.56000e-07      1.20719e-11      1.31455e-11       25.000000     
                  1               
  1.56100e-07      1.20743e-11      1.31447e-11       25.000000     
                  1               
  1.56200e-07      1.20766e-11      1.31439e-11       25.000000     
                  1               
  1.56300e-07      1.20790e-11      1.31431e-11       25.000000     
                  1               
  1.56400e-07      1.20814e-11      1.31423e-11       25.000000     
                  1               
  1.56500e-07      1.20837e-11      1.31415e-11       25.000000     
                  1               
  1.56600e-07      1.20861e-11      1.31407e-11       25.000000     
                  1               
  1.56700e-07      1.20885e-11      1.31399e-11       25.000000     
                  1               
  1.56800e-07      1.20908e-11      1.31391e-11       25.000000     
                  1               
  1.56900e-07      1.20932e-11      1.31383e-11       25.000000     
                  1               
  1.57000e-07      1.20955e-11      1.31375e-11       25.000000     
                  1               
  1.57100e-07      1.20979e-11      1.31368e-11       25.000000     
                  1               
  1.57200e-07      1.21003e-11      1.31360e-11       25.000000     
                  1               
  1.57300e-07      1.21027e-11      1.31352e-11       25.000000     
                  1               
  1.57400e-07      1.21050e-11      1.31344e-11       25.000000     
                  1               
  1.57500e-07      1.21074e-11      1.31336e-11       25.000000     
                  1               
  1.57600e-07      1.21098e-11      1.31328e-11       25.000000     
                  1               
  1.57700e-07      1.21121e-11      1.31321e-11       25.000000     
                  1               
  1.57800e-07      1.21145e-11      1.31313e-11       25.000000     
                  1               
  1.57900e-07      1.21169e-11      1.31305e-11       25.000000     
                  1               
  1.58000e-07      1.21192e-11      1.31298e-11       25.000000     
                  1               
  1.58100e-07      1.21216e-11      1.31290e-11       25.000000     
                  1               
  1.58200e-07      1.21240e-11      1.31282e-11       25.000000     
                  1               
  1.58300e-07      1.21264e-11      1.31275e-11       25.000000     
                  1               
  1.58400e-07      1.21287e-11      1.31267e-11       25.000000     
                  1               
  1.58500e-07      1.21311e-11      1.31259e-11       25.000000     
                  1               
  1.58600e-07      1.21335e-11      1.31252e-11       25.000000     
                  1               
  1.58700e-07      1.21359e-11      1.31244e-11       25.000000     
                  1               
  1.58800e-07      1.21382e-11      1.31237e-11       25.000000     
                  1               
  1.58900e-07      1.21406e-11      1.31229e-11       25.000000     
                  1               
  1.59000e-07      1.21430e-11      1.31222e-11       25.000000     
                  1               
  1.59100e-07      1.21454e-11      1.31214e-11       25.000000     
                  1               
  1.59200e-07      1.21478e-11      1.31207e-11       25.000000     
                  1               
  1.59300e-07      1.21501e-11      1.31200e-11       25.000000     
                  1               
  1.59400e-07      1.21525e-11      1.31192e-11       25.000000     
                  1               
  1.59500e-07      1.21549e-11      1.31185e-11       25.000000     
                  1               
  1.59600e-07      1.21573e-11      1.31177e-11       25.000000     
                  1               
  1.59700e-07      1.21597e-11      1.31170e-11       25.000000     
                  1               
  1.59800e-07      1.21620e-11      1.31163e-11       25.000000     
                  1               
  1.59900e-07      1.21644e-11      1.31156e-11       25.000000     
                  1               
  1.60000e-07      1.21668e-11      1.31148e-11       25.000000     
                  1               
  1.60100e-07      1.21692e-11      1.31141e-11       25.000000     
                  1               
  1.60200e-07      1.21716e-11      1.31134e-11       25.000000     
                  1               
  1.60300e-07      1.21740e-11      1.31127e-11       25.000000     
                  1               
  1.60400e-07      1.21764e-11      1.31119e-11       25.000000     
                  1               
  1.60500e-07      1.21787e-11      1.31112e-11       25.000000     
                  1               
  1.60600e-07      1.21811e-11      1.31105e-11       25.000000     
                  1               
  1.60700e-07      1.21835e-11      1.31098e-11       25.000000     
                  1               
  1.60800e-07      1.21859e-11      1.31091e-11       25.000000     
                  1               
  1.60900e-07      1.21883e-11      1.31084e-11       25.000000     
                  1               
  1.61000e-07      1.21907e-11      1.31077e-11       25.000000     
                  1               
  1.61100e-07      1.21931e-11      1.31070e-11       25.000000     
                  1               
  1.61200e-07      1.21955e-11      1.31063e-11       25.000000     
                  1               
  1.61300e-07      1.21979e-11      1.31056e-11       25.000000     
                  1               
  1.61400e-07      1.22003e-11      1.31049e-11       25.000000     
                  1               
  1.61500e-07      1.22027e-11      1.31042e-11       25.000000     
                  1               
  1.61600e-07      1.22051e-11      1.31035e-11       25.000000     
                  1               
  1.61700e-07      1.22075e-11      1.31028e-11       25.000000     
                  1               
  1.61800e-07      1.22098e-11      1.31021e-11       25.000000     
                  1               
  1.61900e-07      1.22122e-11      1.31014e-11       25.000000     
                  1               
  1.62000e-07      1.22146e-11      1.31007e-11       25.000000     
                  1               
  1.62100e-07      1.22170e-11      1.31000e-11       25.000000     
                  1               
  1.62200e-07      1.22194e-11      1.30993e-11       25.000000     
                  1               
  1.62300e-07      1.22218e-11      1.30986e-11       25.000000     
                  1               
  1.62400e-07      1.22242e-11      1.30980e-11       25.000000     
                  1               
  1.62500e-07      1.22266e-11      1.30973e-11       25.000000     
                  1               
  1.62600e-07      1.22290e-11      1.30966e-11       25.000000     
                  1               
  1.62700e-07      1.22314e-11      1.30959e-11       25.000000     
                  1               
  1.62800e-07      1.22338e-11      1.30952e-11       25.000000     
                  1               
  1.62900e-07      1.22362e-11      1.30946e-11       25.000000     
                  1               
  1.63000e-07      1.22386e-11      1.30939e-11       25.000000     
                  1               
  1.63100e-07      1.22410e-11      1.30932e-11       25.000000     
                  1               
  1.63200e-07      1.22435e-11      1.30925e-11       25.000000     
                  1               
  1.63300e-07      1.22459e-11      1.30919e-11       25.000000     
                  1               
  1.63400e-07      1.22483e-11      1.30912e-11       25.000000     
                  1               
  1.63500e-07      1.22507e-11      1.30905e-11       25.000000     
                  1               
  1.63600e-07      1.22531e-11      1.30899e-11       25.000000     
                  1               
  1.63700e-07      1.22555e-11      1.30892e-11       25.000000     
                  1               
  1.63800e-07      1.22579e-11      1.30885e-11       25.000000     
                  1               
  1.63900e-07      1.22603e-11      1.30879e-11       25.000000     
                  1               
  1.64000e-07      1.22627e-11      1.30872e-11       25.000000     
                  1               
  1.64100e-07      1.22651e-11      1.30866e-11       25.000000     
                  1               
  1.64200e-07      1.22675e-11      1.30859e-11       25.000000     
                  1               
  1.64300e-07      1.22699e-11      1.30853e-11       25.000000     
                  1               
  1.64400e-07      1.22723e-11      1.30846e-11       25.000000     
                  1               
  1.64500e-07      1.22748e-11      1.30840e-11       25.000000     
                  1               
  1.64600e-07      1.22772e-11      1.30833e-11       25.000000     
                  1               
  1.64700e-07      1.22796e-11      1.30827e-11       25.000000     
                  1               
  1.64800e-07      1.22820e-11      1.30820e-11       25.000000     
                  1               
  1.64900e-07      1.22844e-11      1.30814e-11       25.000000     
                  1               
  1.65000e-07      1.22868e-11      1.30808e-11       25.000000     
                  1               
  1.65100e-07      1.22892e-11      1.30801e-11       25.000000     
                  1               
  1.65200e-07      1.22917e-11      1.30795e-11       25.000000     
                  1               
  1.65300e-07      1.22941e-11      1.30789e-11       25.000000     
                  1               
  1.65400e-07      1.22965e-11      1.30782e-11       25.000000     
                  1               
  1.65500e-07      1.22989e-11      1.30776e-11       25.000000     
                  1               
  1.65600e-07      1.23013e-11      1.30770e-11       25.000000     
                  1               
  1.65700e-07      1.23037e-11      1.30763e-11       25.000000     
                  1               
  1.65800e-07      1.23062e-11      1.30757e-11       25.000000     
                  1               
  1.65900e-07      1.23086e-11      1.30751e-11       25.000000     
                  1               
  1.66000e-07      1.23110e-11      1.30745e-11       25.000000     
                  1               
  1.66100e-07      1.23134e-11      1.30739e-11       25.000000     
                  1               
  1.66200e-07      1.23158e-11      1.30732e-11       25.000000     
                  1               
  1.66300e-07      1.23183e-11      1.30726e-11       25.000000     
                  1               
  1.66400e-07      1.23207e-11      1.30720e-11       25.000000     
                  1               
  1.66500e-07      1.23231e-11      1.30714e-11       25.000000     
                  1               
  1.66600e-07      1.23255e-11      1.30708e-11       25.000000     
                  1               
  1.66700e-07      1.23280e-11      1.30702e-11       25.000000     
                  1               
  1.66800e-07      1.23304e-11      1.30696e-11       25.000000     
                  1               
  1.66900e-07      1.23328e-11      1.30690e-11       25.000000     
                  1               
  1.67000e-07      1.23352e-11      1.30684e-11       25.000000     
                  1               
  1.67100e-07      1.23377e-11      1.30678e-11       25.000000     
                  1               
  1.67200e-07      1.23401e-11      1.30672e-11       25.000000     
                  1               
  1.67300e-07      1.23425e-11      1.30666e-11       25.000000     
                  1               
  1.67400e-07      1.23449e-11      1.30660e-11       25.000000     
                  1               
  1.67500e-07      1.23474e-11      1.30654e-11       25.000000     
                  1               
  1.67600e-07      1.23498e-11      1.30648e-11       25.000000     
                  1               
  1.67700e-07      1.23522e-11      1.30642e-11       25.000000     
                  1               
  1.67800e-07      1.23547e-11      1.30636e-11       25.000000     
                  1               
  1.67900e-07      1.23571e-11      1.30630e-11       25.000000     
                  1               
  1.68000e-07      1.23595e-11      1.30624e-11       25.000000     
                  1               
  1.68100e-07      1.23620e-11      1.30619e-11       25.000000     
                  1               
  1.68200e-07      1.23644e-11      1.30613e-11       25.000000     
                  1               
  1.68300e-07      1.23668e-11      1.30607e-11       25.000000     
                  1               
  1.68400e-07      1.23693e-11      1.30601e-11       25.000000     
                  1               
  1.68500e-07      1.23717e-11      1.30595e-11       25.000000     
                  1               
  1.68600e-07      1.23741e-11      1.30590e-11       25.000000     
                  1               
  1.68700e-07      1.23766e-11      1.30584e-11       25.000000     
                  1               
  1.68800e-07      1.23790e-11      1.30578e-11       25.000000     
                  1               
  1.68900e-07      1.23814e-11      1.30573e-11       25.000000     
                  1               
  1.69000e-07      1.23839e-11      1.30567e-11       25.000000     
                  1               
  1.69100e-07      1.23863e-11      1.30561e-11       25.000000     
                  1               
  1.69200e-07      1.23887e-11      1.30556e-11       25.000000     
                  1               
  1.69300e-07      1.23912e-11      1.30550e-11       25.000000     
                  1               
  1.69400e-07      1.23936e-11      1.30544e-11       25.000000     
                  1               
  1.69500e-07      1.23961e-11      1.30539e-11       25.000000     
                  1               
  1.69600e-07      1.23985e-11      1.30533e-11       25.000000     
                  1               
  1.69700e-07      1.24009e-11      1.30528e-11       25.000000     
                  1               
  1.69800e-07      1.24034e-11      1.30522e-11       25.000000     
                  1               
  1.69900e-07      1.24058e-11      1.30517e-11       25.000000     
                  1               
  1.70000e-07      1.24083e-11      1.30511e-11       25.000000     
                  1               
  1.70100e-07      1.24107e-11      1.30505e-11       25.000000     
                  1               
  1.70200e-07      1.24131e-11      1.30500e-11       25.000000     
                  1               
  1.70300e-07      1.24156e-11      1.30495e-11       25.000000     
                  1               
  1.70400e-07      1.24180e-11      1.30489e-11       25.000000     
                  1               
  1.70500e-07      1.24205e-11      1.30484e-11       25.000000     
                  1               
  1.70600e-07      1.24229e-11      1.30478e-11       25.000000     
                  1               
  1.70700e-07      1.24254e-11      1.30473e-11       25.000000     
                  1               
  1.70800e-07      1.24278e-11      1.30467e-11       25.000000     
                  1               
  1.70900e-07      1.24303e-11      1.30462e-11       25.000000     
                  1               
  1.71000e-07      1.24327e-11      1.30457e-11       25.000000     
                  1               
  1.71100e-07      1.24352e-11      1.30451e-11       25.000000     
                  1               
  1.71200e-07      1.24376e-11      1.30446e-11       25.000000     
                  1               
  1.71300e-07      1.24401e-11      1.30441e-11       25.000000     
                  1               
  1.71400e-07      1.24425e-11      1.30436e-11       25.000000     
                  1               
  1.71500e-07      1.24449e-11      1.30430e-11       25.000000     
                  1               
  1.71600e-07      1.24474e-11      1.30425e-11       25.000000     
                  1               
  1.71700e-07      1.24498e-11      1.30420e-11       25.000000     
                  1               
  1.71800e-07      1.24523e-11      1.30415e-11       25.000000     
                  1               
  1.71900e-07      1.24548e-11      1.30409e-11       25.000000     
                  1               
  1.72000e-07      1.24572e-11      1.30404e-11       25.000000     
                  1               
  1.72100e-07      1.24597e-11      1.30399e-11       25.000000     
                  1               
  1.72200e-07      1.24621e-11      1.30394e-11       25.000000     
                  1               
  1.72300e-07      1.24646e-11      1.30389e-11       25.000000     
                  1               
  1.72400e-07      1.24670e-11      1.30384e-11       25.000000     
                  1               
  1.72500e-07      1.24695e-11      1.30378e-11       25.000000     
                  1               
  1.72600e-07      1.24719e-11      1.30373e-11       25.000000     
                  1               
  1.72700e-07      1.24744e-11      1.30368e-11       25.000000     
                  1               
  1.72800e-07      1.24768e-11      1.30363e-11       25.000000     
                  1               
  1.72900e-07      1.24793e-11      1.30358e-11       25.000000     
                  1               
  1.73000e-07      1.24818e-11      1.30353e-11       25.000000     
                  1               
  1.73100e-07      1.24842e-11      1.30348e-11       25.000000     
                  1               
  1.73200e-07      1.24867e-11      1.30343e-11       25.000000     
                  1               
  1.73300e-07      1.24891e-11      1.30338e-11       25.000000     
                  1               
  1.73400e-07      1.24916e-11      1.30333e-11       25.000000     
                  1               
  1.73500e-07      1.24940e-11      1.30328e-11       25.000000     
                  1               
  1.73600e-07      1.24965e-11      1.30323e-11       25.000000     
                  1               
  1.73700e-07      1.24990e-11      1.30318e-11       25.000000     
                  1               
  1.73800e-07      1.25014e-11      1.30313e-11       25.000000     
                  1               
  1.73900e-07      1.25039e-11      1.30309e-11       25.000000     
                  1               
  1.74000e-07      1.25063e-11      1.30304e-11       25.000000     
                  1               
  1.74100e-07      1.25088e-11      1.30299e-11       25.000000     
                  1               
  1.74200e-07      1.25113e-11      1.30294e-11       25.000000     
                  1               
  1.74300e-07      1.25137e-11      1.30289e-11       25.000000     
                  1               
  1.74400e-07      1.25162e-11      1.30284e-11       25.000000     
                  1               
  1.74500e-07      1.25187e-11      1.30279e-11       25.000000     
                  1               
  1.74600e-07      1.25211e-11      1.30275e-11       25.000000     
                  1               
  1.74700e-07      1.25236e-11      1.30270e-11       25.000000     
                  1               
  1.74800e-07      1.25261e-11      1.30265e-11       25.000000     
                  1               
  1.74900e-07      1.25285e-11      1.30260e-11       25.000000     
                  1               
  1.75000e-07      1.25310e-11      1.30256e-11       25.000000     
                  1               
  1.75100e-07      1.25335e-11      1.30251e-11       25.000000     
                  1               
  1.75200e-07      1.25359e-11      1.30246e-11       25.000000     
                  1               
  1.75300e-07      1.25384e-11      1.30242e-11       25.000000     
                  1               
  1.75400e-07      1.25409e-11      1.30237e-11       25.000000     
                  1               
  1.75500e-07      1.25433e-11      1.30232e-11       25.000000     
                  1               
  1.75600e-07      1.25458e-11      1.30228e-11       25.000000     
                  1               
  1.75700e-07      1.25483e-11      1.30223e-11       25.000000     
                  1               
  1.75800e-07      1.25507e-11      1.30218e-11       25.000000     
                  1               
  1.75900e-07      1.25532e-11      1.30214e-11       25.000000     
                  1               
  1.76000e-07      1.25557e-11      1.30209e-11       25.000000     
                  1               
  1.76100e-07      1.25582e-11      1.30205e-11       25.000000     
                  1               
  1.76200e-07      1.25606e-11      1.30200e-11       25.000000     
                  1               
  1.76300e-07      1.25631e-11      1.30196e-11       25.000000     
                  1               
  1.76400e-07      1.25656e-11      1.30191e-11       25.000000     
                  1               
  1.76500e-07      1.25681e-11      1.30187e-11       25.000000     
                  1               
  1.76600e-07      1.25705e-11      1.30182e-11       25.000000     
                  1               
[...]
  1.80900e-07      1.26773e-11      1.30002e-11       25.000000     
                  1               
  1.81000e-07      1.26798e-11      1.29998e-11       25.000000     
                  1               
  1.81100e-07      1.26823e-11      1.29994e-11       25.000000     
                  1               
  1.81200e-07      1.26848e-11      1.29990e-11       25.000000     
                  1               
  1.81300e-07      1.26873e-11      1.29987e-11       25.000000     
                  1               
  1.81400e-07      1.26898e-11      1.29983e-11       25.000000     
                  1               
  1.81500e-07      1.26923e-11      1.29979e-11       25.000000     
                  1               
  1.81600e-07      1.26948e-11      1.29975e-11       25.000000     
                  1               
  1.81700e-07      1.26973e-11      1.29971e-11       25.000000     
                  1               
  1.81800e-07      1.26998e-11      1.29968e-11       25.000000     
                  1               
  1.81900e-07      1.27023e-11      1.29964e-11       25.000000     
                  1               
  1.82000e-07      1.27048e-11      1.29960e-11       25.000000     
                  1               
  1.82100e-07      1.27073e-11      1.29956e-11       25.000000     
                  1               
  1.82200e-07      1.27098e-11      1.29953e-11       25.000000     
                  1               
  1.82300e-07      1.27123e-11      1.29949e-11       25.000000     
                  1               
  1.82400e-07      1.27148e-11      1.29945e-11       25.000000     
                  1               
  1.82500e-07      1.27173e-11      1.29941e-11       25.000000     
                  1               
  1.82600e-07      1.27198e-11      1.29938e-11       25.000000     
                  1               
  1.82700e-07      1.27223e-11      1.29934e-11       25.000000     
                  1               
  1.82800e-07      1.27248e-11      1.29930e-11       25.000000     
                  1               
  1.82900e-07      1.27273e-11      1.29927e-11       25.000000     
                  1               
  1.83000e-07      1.27298e-11      1.29923e-11       25.000000     
                  1               
  1.83100e-07      1.27323e-11      1.29920e-11       25.000000     
                  1               
  1.83200e-07      1.27348e-11      1.29916e-11       25.000000     
                  1               
  1.83300e-07      1.27373e-11      1.29912e-11       25.000000     
                  1               
  1.83400e-07      1.27398e-11      1.29909e-11       25.000000     
                  1               
  1.83500e-07      1.27423e-11      1.29905e-11       25.000000     
                  1               
  1.83600e-07      1.27448e-11      1.29902e-11       25.000000     
                  1               
  1.83700e-07      1.27473e-11      1.29898e-11       25.000000     
                  1               
  1.83800e-07      1.27498e-11      1.29895e-11       25.000000     
                  1               
  1.83900e-07      1.27523e-11      1.29891e-11       25.000000     
                  1               
  1.84000e-07      1.27549e-11      1.29888e-11       25.000000     
                  1               
  1.84100e-07      1.27574e-11      1.29884e-11       25.000000     
                  1               
  1.84200e-07      1.27599e-11      1.29881e-11       25.000000     
                  1               
  1.84300e-07      1.27624e-11      1.29877e-11       25.000000     
                  1               
  1.84400e-07      1.27649e-11      1.29874e-11       25.000000     
                  1               
  1.84500e-07      1.27674e-11      1.29870e-11       25.000000     
                  1               
  1.84600e-07      1.27699e-11      1.29867e-11       25.000000     
                  1               
  1.84700e-07      1.27724e-11      1.29863e-11       25.000000     
                  1               
  1.84800e-07      1.27749e-11      1.29860e-11       25.000000     
                  1               
  1.84900e-07      1.27774e-11      1.29857e-11       25.000000     
                  1               
  1.85000e-07      1.27799e-11      1.29853e-11       25.000000     
                  1               
  1.85100e-07      1.27825e-11      1.29850e-11       25.000000     
                  1               
  1.85200e-07      1.27850e-11      1.29847e-11       25.000000     
                  1               
  1.85300e-07      1.27875e-11      1.29843e-11       25.000000     
                  1               
  1.85400e-07      1.27900e-11      1.29840e-11       25.000000     
                  1               
  1.85500e-07      1.27925e-11      1.29836e-11       25.000000     
                  1               
  1.85600e-07      1.27950e-11      1.29833e-11       25.000000     
                  1               
  1.85700e-07      1.27975e-11      1.29830e-11       25.000000     
                  1               
  1.85800e-07      1.28000e-11      1.29827e-11       25.000000     
                  1               
  1.85900e-07      1.28026e-11      1.29823e-11       25.000000     
                  1               
  1.86000e-07      1.28051e-11      1.29820e-11       25.000000     
                  1               
  1.86100e-07      1.28076e-11      1.29817e-11       25.000000     
                  1               
  1.86200e-07      1.28101e-11      1.29814e-11       25.000000     
                  1               
  1.86300e-07      1.28126e-11      1.29810e-11       25.000000     
                  1               
  1.86400e-07      1.28151e-11      1.29807e-11       25.000000     
                  1               
  1.86500e-07      1.28176e-11      1.29804e-11       25.000000     
                  1               
  1.86600e-07      1.28202e-11      1.29801e-11       25.000000     
                  1               
  1.86700e-07      1.28227e-11      1.29798e-11       25.000000     
                  1               
  1.86800e-07      1.28252e-11      1.29794e-11       25.000000     
                  1               
  1.86900e-07      1.28277e-11      1.29791e-11       25.000000     
                  1               
  1.87000e-07      1.28302e-11      1.29788e-11       25.000000     
                  1               
  1.87100e-07      1.28328e-11      1.29785e-11       25.000000     
                  1               
  1.87200e-07      1.28353e-11      1.29782e-11       25.000000     
                  1               
  1.87300e-07      1.28378e-11      1.29779e-11       25.000000     
                  1               
  1.87400e-07      1.28403e-11      1.29776e-11       25.000000     
                  1               
  1.87500e-07      1.28428e-11      1.29773e-11       25.000000     
                  1               
  1.87600e-07      1.28454e-11      1.29770e-11       25.000000     
                  1               
  1.87700e-07      1.28479e-11      1.29767e-11       25.000000     
                  1               
  1.87800e-07      1.28504e-11      1.29763e-11       25.000000     
                  1               
  1.87900e-07      1.28529e-11      1.29760e-11       25.000000     
                  1               
  1.88000e-07      1.28554e-11      1.29757e-11       25.000000     
                  1               
  1.88100e-07      1.28580e-11      1.29754e-11       25.000000     
                  1               
  1.88200e-07      1.28605e-11      1.29751e-11       25.000000     
                  1               
  1.88300e-07      1.28630e-11      1.29748e-11       25.000000     
                  1               
  1.88400e-07      1.28655e-11      1.29745e-11       25.000000     
                  1               
  1.88500e-07      1.28681e-11      1.29742e-11       25.000000     
                  1               
  1.88600e-07      1.28706e-11      1.29739e-11       25.000000     
                  1               
  1.88700e-07      1.28731e-11      1.29737e-11       25.000000     
                  1               
  1.88800e-07      1.28756e-11      1.29734e-11       25.000000     
                  1               
  1.88900e-07      1.28782e-11      1.29731e-11       25.000000     
                  1               
  1.89000e-07      1.28807e-11      1.29728e-11       25.000000     
                  1               
  1.89100e-07      1.28832e-11      1.29725e-11       25.000000     
                  1               
  1.89200e-07      1.28857e-11      1.29722e-11       25.000000     
                  1               
  1.89300e-07      1.28883e-11      1.29719e-11       25.000000     
                  1               
  1.89400e-07      1.28908e-11      1.29716e-11       25.000000     
                  1               
  1.89500e-07      1.28933e-11      1.29713e-11       25.000000     
                  1               
  1.89600e-07      1.28959e-11      1.29711e-11       25.000000     
                  1               
  1.89700e-07      1.28984e-11      1.29708e-11       25.000000     
                  1               
  1.89800e-07      1.29009e-11      1.29705e-11       25.000000     
                  1               
  1.89900e-07      1.29034e-11      1.29702e-11       25.000000     
                  1               
  1.90000e-07      1.29060e-11      1.29699e-11       25.000000     
                  1               
  1.90100e-07      1.29085e-11      1.29697e-11       25.000000     
                  1               
  1.90200e-07      1.29110e-11      1.29694e-11       25.000000     
                  1               
  1.90300e-07      1.29136e-11      1.29691e-11       25.000000     
                  1               
  1.90400e-07      1.29161e-11      1.29688e-11       25.000000     
                  1               
  1.90500e-07      1.29186e-11      1.29685e-11       25.000000     
                  1               
  1.90600e-07      1.29212e-11      1.29683e-11       25.000000     
                  1               
  1.90700e-07      1.29237e-11      1.29680e-11       25.000000     
                  1               
  1.90800e-07      1.29262e-11      1.29677e-11       25.000000     
                  1               
  1.90900e-07      1.29288e-11      1.29675e-11       25.000000     
                  1               
  1.91000e-07      1.29313e-11      1.29672e-11       25.000000     
                  1               
  1.91100e-07      1.29338e-11      1.29669e-11       25.000000     
                  1               
  1.91200e-07      1.29364e-11      1.29667e-11       25.000000     
                  1               
  1.91300e-07      1.29389e-11      1.29664e-11       25.000000     
                  1               
  1.91400e-07      1.29414e-11      1.29661e-11       25.000000     
                  1               
  1.91500e-07      1.29440e-11      1.29659e-11       25.000000     
                  1               
  1.91600e-07      1.29465e-11      1.29656e-11       25.000000     
                  1               
  1.91700e-07      1.29490e-11      1.29653e-11       25.000000     
                  1               
  1.91800e-07      1.29516e-11      1.29651e-11       25.000000     
                  1               
  1.91900e-07      1.29541e-11      1.29648e-11       25.000000     
                  1               
  1.92000e-07      1.29566e-11      1.29646e-11       25.000000     
                  1               
  1.92100e-07      1.29592e-11      1.29643e-11       25.000000     
                  1               
  1.92200e-07      1.29617e-11      1.29640e-11       25.000000     
                  1               
  1.92300e-07      1.29643e-11      1.29638e-11       25.000000     
                  1               
  1.92400e-07      1.29668e-11      1.29635e-11       25.000000     
                  1               
  1.92500e-07      1.29693e-11      1.29633e-11       25.000000     
                  1               
  1.92600e-07      1.29719e-11      1.29630e-11       25.000000     
                  1               
  1.92700e-07      1.29744e-11      1.29628e-11       25.000000     
                  1               
  1.92800e-07      1.29770e-11      1.29625e-11       25.000000     
                  1               
  1.92900e-07      1.29795e-11      1.29623e-11       25.000000     
                  1               
  1.93000e-07      1.29820e-11      1.29620e-11       25.000000     
                  1               
  1.93100e-07      1.29846e-11      1.29618e-11       25.000000     
                  1               
  1.93200e-07      1.29871e-11      1.29615e-11       25.000000     
                  1               
  1.93300e-07      1.29897e-11      1.29613e-11       25.000000     
                  1               
  1.93400e-07      1.29922e-11      1.29611e-11       25.000000     
                  1               
  1.93500e-07      1.29947e-11      1.29608e-11       25.000000     
                  1               
  1.93600e-07      1.29973e-11      1.29606e-11       25.000000     
                  1               
  1.93700e-07      1.29998e-11      1.29603e-11       25.000000     
                  1               
  1.93800e-07      1.30024e-11      1.29601e-11       25.000000     
                  1               
  1.93900e-07      1.30049e-11      1.29599e-11       25.000000     
                  1               
  1.94000e-07      1.30075e-11      1.29596e-11       25.000000     
                  1               
  1.94100e-07      1.30100e-11      1.29594e-11       25.000000     
                  1               
  1.94200e-07      1.30126e-11      1.29591e-11       25.000000     
                  1               
  1.94300e-07      1.30151e-11      1.29589e-11       25.000000     
                  1               
  1.94400e-07      1.30176e-11      1.29587e-11       25.000000     
                  1               
  1.94500e-07      1.30202e-11      1.29584e-11       25.000000     
                  1               
  1.94600e-07      1.30227e-11      1.29582e-11       25.000000     
                  1               
  1.94700e-07      1.30253e-11      1.29580e-11       25.000000     
                  1               
  1.94800e-07      1.30278e-11      1.29578e-11       25.000000     
                  1               
  1.94900e-07      1.30304e-11      1.29575e-11       25.000000     
                  1               
  1.95000e-07      1.30329e-11      1.29573e-11       25.000000     
                  1               
  1.95100e-07      1.30355e-11      1.29571e-11       25.000000     
                  1               
  1.95200e-07      1.30380e-11      1.29568e-11       25.000000     
                  1               
  1.95300e-07      1.30406e-11      1.29566e-11       25.000000     
                  1               
  1.95400e-07      1.30431e-11      1.29564e-11       25.000000     
                  1               
  1.95500e-07      1.30457e-11      1.29562e-11       25.000000     
                  1               
  1.95600e-07      1.30482e-11      1.29560e-11       25.000000     
                  1               
  1.95700e-07      1.30508e-11      1.29557e-11       25.000000     
                  1               
  1.95800e-07      1.30533e-11      1.29555e-11       25.000000     
                  1               
  1.95900e-07      1.30559e-11      1.29553e-11       25.000000     
                  1               
  1.96000e-07      1.30584e-11      1.29551e-11       25.000000     
                  1               
  1.96100e-07      1.30610e-11      1.29549e-11       25.000000     
                  1               
  1.96200e-07      1.30635e-11      1.29546e-11       25.000000     
                  1               
  1.96300e-07      1.30661e-11      1.29544e-11       25.000000     
                  1               
  1.96400e-07      1.30686e-11      1.29542e-11       25.000000     
                  1               
  1.96500e-07      1.30712e-11      1.29540e-11       25.000000     
                  1               
  1.96600e-07      1.30737e-11      1.29538e-11       25.000000     
                  1               
  1.96700e-07      1.30763e-11      1.29536e-11       25.000000     
                  1               
  1.96800e-07      1.30788e-11      1.29534e-11       25.000000     
                  1               
  1.96900e-07      1.30814e-11      1.29532e-11       25.000000     
                  1               
  1.97000e-07      1.30840e-11      1.29530e-11       25.000000     
                  1               
  1.97100e-07      1.30865e-11      1.29528e-11       25.000000     
                  1               
  1.97200e-07      1.30891e-11      1.29525e-11       25.000000     
                  1               
  1.97300e-07      1.30916e-11      1.29523e-11       25.000000     
                  1               
  1.97400e-07      1.30942e-11      1.29521e-11       25.000000     
                  1               
  1.97500e-07      1.30967e-11      1.29519e-11       25.000000     
                  1               
  1.97600e-07      1.30993e-11      1.29517e-11       25.000000     
                  1               
  1.97700e-07      1.31018e-11      1.29515e-11       25.000000     
                  1               
  1.97800e-07      1.31044e-11      1.29513e-11       25.000000     
                  1               
  1.97900e-07      1.31070e-11      1.29511e-11       25.000000     
                  1               
  1.98000e-07      1.31095e-11      1.29509e-11       25.000000     
                  1               
  1.98100e-07      1.31121e-11      1.29507e-11       25.000000     
                  1               
  1.98200e-07      1.31146e-11      1.29505e-11       25.000000     
                  1               
  1.98300e-07      1.31172e-11      1.29503e-11       25.000000     
                  1               
  1.98400e-07      1.31198e-11      1.29502e-11       25.000000     
                  1               
  1.98500e-07      1.31223e-11      1.29500e-11       25.000000     
                  1               
  1.98600e-07      1.31249e-11      1.29498e-11       25.000000     
                  1               
  1.98700e-07      1.31274e-11      1.29496e-11       25.000000     
                  1               
  1.98800e-07      1.31300e-11      1.29494e-11       25.000000     
                  1               
  1.98900e-07      1.31326e-11      1.29492e-11       25.000000     
                  1               
  1.99000e-07      1.31351e-11      1.29490e-11       25.000000     
                  1               
  1.99100e-07      1.31377e-11      1.29488e-11       25.000000     
                  1               
  1.99200e-07      1.31402e-11      1.29486e-11       25.000000     
                  1               
  1.99300e-07      1.31428e-11      1.29485e-11       25.000000     
                  1               
  1.99400e-07      1.31454e-11      1.29483e-11       25.000000     
                  1               
  1.99500e-07      1.31479e-11      1.29481e-11       25.000000     
                  1               
  1.99600e-07      1.31505e-11      1.29479e-11       25.000000     
                  1               
  1.99700e-07      1.31531e-11      1.29477e-11       25.000000     
                  1               
  1.99800e-07      1.31556e-11      1.29475e-11       25.000000     
                  1               
  1.99900e-07      1.31582e-11      1.29474e-11       25.000000     
                  1               
  2.00000e-07      1.31607e-11      1.29472e-11       25.000000     
                  1               
