$DATA1 SOURCE='HSPICE' VERSION='G-2012.06-SP1 32-BIT'
.TITLE 'simulating a nand2's transitions and sweeping its fanout'
 fanout           delay_h_to_l     delay_l_to_h     temper            
                  alter#            
    1.000000       8.58776e-12      1.45426e-11       25.000000       
                  1                 
    2.000000       1.04752e-11      1.66400e-11       25.000000       
                  1                 
    3.000000       1.21562e-11      1.86680e-11       25.000000       
                  1                 
    4.000000       1.36842e-11      2.06093e-11       25.000000       
                  1                 
    5.000000       1.51102e-11      2.25210e-11       25.000000       
                  1                 
    6.000000       1.65119e-11      2.43855e-11       25.000000       
                  1                 
    7.000000       1.78348e-11      2.62805e-11       25.000000       
                  1                 
    8.000000       1.91405e-11      2.81398e-11       25.000000       
                  1                 
    9.000000       2.03900e-11      2.99494e-11       25.000000       
                  1                 
   10.000000       2.16776e-11      3.18121e-11       25.000000       
                  1                 
   11.000000       2.29507e-11      3.36955e-11       25.000000       
                  1                 
   12.000000       2.41891e-11      3.56680e-11       25.000000       
                  1                 
   13.000000       2.53945e-11      3.74877e-11       25.000000       
                  1                 
   14.000000       2.66101e-11      3.94047e-11       25.000000       
                  1                 
   15.000000       2.78509e-11      4.13192e-11       25.000000       
                  1                 
   16.000000       2.91542e-11      4.33243e-11       25.000000       
                  1                 
   17.000000       3.03821e-11      4.52316e-11       25.000000       
                  1                 
   18.000000       3.15892e-11      4.72412e-11       25.000000       
                  1                 
   19.000000       3.27771e-11      4.92162e-11       25.000000       
                  1                 
   20.000000       3.40582e-11      5.12184e-11       25.000000       
                  1                 
   21.000000       3.53410e-11      5.32394e-11       25.000000       
                  1                 
   22.000000       3.66055e-11      5.51751e-11       25.000000       
                  1                 
   23.000000       3.78528e-11      5.72036e-11       25.000000       
                  1                 
   24.000000       3.90838e-11      5.92750e-11       25.000000       
                  1                 
   25.000000       4.02975e-11      6.14081e-11       25.000000       
                  1                 
   26.000000       4.15786e-11      6.34447e-11       25.000000       
                  1                 
   27.000000       4.28997e-11      6.54996e-11       25.000000       
                  1                 
   28.000000       4.41967e-11      6.75473e-11       25.000000       
                  1                 
   29.000000       4.54718e-11      6.96132e-11       25.000000       
                  1                 
   30.000000       4.67262e-11      7.16687e-11       25.000000       
                  1                 
   31.000000       4.79603e-11      7.37978e-11       25.000000       
                  1                 
   32.000000       4.92475e-11      7.58773e-11       25.000000       
                  1                 
   33.000000       5.06092e-11      7.79533e-11       25.000000       
                  1                 
   34.000000       5.19503e-11      8.00399e-11       25.000000       
                  1                 
   35.000000       5.32718e-11      8.21455e-11       25.000000       
                  1                 
   36.000000       5.45711e-11      8.42307e-11       25.000000       
                  1                 
   37.000000       5.58490e-11      8.63415e-11       25.000000       
                  1                 
   38.000000       5.71059e-11      8.84541e-11       25.000000       
                  1                 
   39.000000       5.83421e-11      9.05698e-11       25.000000       
                  1                 
   40.000000       5.96809e-11      9.26893e-11       25.000000       
                  1                 
   41.000000       6.10169e-11      9.48058e-11       25.000000       
                  1                 
   42.000000       6.23261e-11      9.69061e-11       25.000000       
                  1                 
   43.000000       6.36120e-11      9.90340e-11       25.000000       
                  1                 
   44.000000       6.48760e-11      1.01148e-10       25.000000       
                  1                 
   45.000000       6.62523e-11      1.03268e-10       25.000000       
                  1                 
   46.000000       6.76242e-11      1.05414e-10       25.000000       
                  1                 
   47.000000       6.89767e-11      1.07491e-10       25.000000       
                  1                 
   48.000000       7.03095e-11      1.09625e-10       25.000000       
                  1                 
   49.000000       7.16331e-11      1.11754e-10       25.000000       
                  1                 
   50.000000       7.30070e-11      1.13857e-10       25.000000       
                  1                 
   51.000000       7.43634e-11      1.15965e-10       25.000000       
                  1                 
   52.000000       7.57100e-11      1.18090e-10       25.000000       
                  1                 
   53.000000       7.70754e-11      1.20192e-10       25.000000       
                  1                 
   54.000000       7.84315e-11      1.22363e-10       25.000000       
                  1                 
   55.000000       7.97827e-11      1.24457e-10       25.000000       
                  1                 
   56.000000       8.11875e-11      1.26560e-10       25.000000       
                  1                 
   57.000000       8.25853e-11      1.28667e-10       25.000000       
                  1                 
   58.000000       8.40364e-11      1.30759e-10       25.000000       
                  1                 
   59.000000       8.51450e-11      1.32877e-10       25.000000       
                  1                 
   60.000000       8.65194e-11      1.34990e-10       25.000000       
                  1                 
   61.000000       8.78795e-11      1.37076e-10       25.000000       
                  1                 
   62.000000       8.92259e-11      1.39163e-10       25.000000       
                  1                 
   63.000000       9.06178e-11      1.41255e-10       25.000000       
                  1                 
   64.000000       9.20088e-11      1.43331e-10       25.000000       
                  1                 
   65.000000       9.33895e-11      1.45417e-10       25.000000       
                  1                 
   66.000000       9.47728e-11      1.47502e-10       25.000000       
                  1                 
   67.000000       9.61565e-11      1.49575e-10       25.000000       
                  1                 
   68.000000       9.75338e-11      1.51642e-10       25.000000       
                  1                 
   69.000000       9.89185e-11      1.53738e-10       25.000000       
                  1                 
   70.000000       1.00317e-10      1.55767e-10       25.000000       
                  1                 
   71.000000       1.01715e-10      1.57856e-10       25.000000       
                  1                 
   72.000000       1.03110e-10      1.59847e-10       25.000000       
                  1                 
   73.000000       1.04508e-10      1.61871e-10       25.000000       
                  1                 
   74.000000       1.05899e-10      1.63902e-10       25.000000       
                  1                 
   75.000000       1.07295e-10      1.65923e-10       25.000000       
                  1                 
   76.000000       1.08488e-10      1.67958e-10       25.000000       
                  1                 
   77.000000       1.09868e-10      1.69948e-10       25.000000       
                  1                 
   78.000000       1.11259e-10      1.71924e-10       25.000000       
                  1                 
   79.000000       1.12662e-10      1.73918e-10       25.000000       
                  1                 
   80.000000       1.14061e-10      1.75860e-10       25.000000       
                  1                 
   81.000000       1.15455e-10      1.77809e-10       25.000000       
                  1                 
   82.000000       1.16850e-10      1.79724e-10       25.000000       
                  1                 
   83.000000       1.18242e-10      1.81628e-10       25.000000       
                  1                 
   84.000000       1.19631e-10      1.83515e-10       25.000000       
                  1                 
   85.000000       1.21028e-10      1.85434e-10       25.000000       
                  1                 
   86.000000       1.22427e-10      1.87334e-10       25.000000       
                  1                 
   87.000000       1.23827e-10      1.89141e-10       25.000000       
                  1                 
   88.000000       1.25226e-10      1.91000e-10       25.000000       
                  1                 
   89.000000       1.26625e-10      1.92820e-10       25.000000       
                  1                 
   90.000000       1.28024e-10      1.94628e-10       25.000000       
                  1                 
   91.000000       1.29422e-10      1.96409e-10       25.000000       
                  1                 
   92.000000       1.30818e-10      1.98186e-10       25.000000       
                  1                 
   93.000000       1.32214e-10      1.99938e-10       25.000000       
                  1                 
   94.000000       1.33609e-10      2.01573e-10       25.000000       
                  1                 
   95.000000       1.35002e-10      2.03320e-10       25.000000       
                  1                 
   96.000000       1.36393e-10      2.05041e-10       25.000000       
                  1                 
   97.000000       1.37774e-10      2.06649e-10       25.000000       
                  1                 
   98.000000       1.39106e-10      2.08293e-10       25.000000       
                  1                 
   99.000000       1.40496e-10      2.09898e-10       25.000000       
                  1                 
  100.000000       1.41844e-10      2.11479e-10       25.000000       
                  1                 
  101.000000       1.43245e-10      2.13055e-10       25.000000       
                  1                 
  102.000000       1.44650e-10      2.14590e-10       25.000000       
                  1                 
  103.000000       1.46057e-10      2.16141e-10       25.000000       
                  1                 
  104.000000       1.47465e-10      2.17612e-10       25.000000       
                  1                 
  105.000000       1.48858e-10      2.18969e-10       25.000000       
                  1                 
  106.000000       1.50260e-10      2.20434e-10       25.000000       
                  1                 
  107.000000       1.51663e-10      2.21831e-10       25.000000       
                  1                 
  108.000000       1.53067e-10      2.23188e-10       25.000000       
                  1                 
  109.000000       1.54472e-10      2.24609e-10       25.000000       
                  1                 
  110.000000       1.55879e-10      2.25889e-10       25.000000       
                  1                 
  111.000000       1.57279e-10      2.27210e-10       25.000000       
                  1                 
  112.000000       1.58678e-10      2.28419e-10       25.000000       
                  1                 
  113.000000       1.60074e-10      2.29697e-10       25.000000       
                  1                 
  114.000000       1.61474e-10      2.30852e-10       25.000000       
                  1                 
  115.000000       1.62873e-10      2.32091e-10       25.000000       
                  1                 
  116.000000       1.64271e-10      2.33241e-10       25.000000       
                  1                 
  117.000000       1.65667e-10      2.34316e-10       25.000000       
                  1                 
  118.000000       1.67056e-10      2.35404e-10       25.000000       
                  1                 
  119.000000       1.68445e-10      2.36422e-10       25.000000       
                  1                 
  120.000000       1.69836e-10      2.37425e-10       25.000000       
                  1                 
  121.000000       1.71220e-10      2.38383e-10       25.000000       
                  1                 
  122.000000       1.72603e-10      2.39334e-10       25.000000       
                  1                 
  123.000000       1.74006e-10      2.40315e-10       25.000000       
                  1                 
  124.000000       1.75368e-10      2.41195e-10       25.000000       
                  1                 
  125.000000       1.76779e-10      2.42048e-10       25.000000       
                  1                 
  126.000000       1.78191e-10      2.42856e-10       25.000000       
                  1                 
  127.000000       1.79604e-10      2.43644e-10       25.000000       
                  1                 
  128.000000       1.81019e-10      2.44365e-10       25.000000       
                  1                 
