$DATA1 SOURCE='HSPICE' VERSION='J-2014.09 64-BIT'
.TITLE 'simulating a nand3 for optimal high-to-low transition'
 nmos_width_param delay_h_to_l     temper           alter#          
  6.00000e-07      1.44672e-11       25.000000      1               
  6.01000e-07      1.44553e-11       25.000000      1               
  6.02000e-07      1.44433e-11       25.000000      1               
  6.03000e-07      1.44314e-11       25.000000      1               
  6.04000e-07      1.44195e-11       25.000000      1               
  6.05000e-07      1.44076e-11       25.000000      1               
  6.06000e-07      1.43957e-11       25.000000      1               
  6.07000e-07      1.43838e-11       25.000000      1               
  6.08000e-07      1.43719e-11       25.000000      1               
  6.09000e-07      1.43601e-11       25.000000      1               
  6.10000e-07      1.43482e-11       25.000000      1               
  6.11000e-07      1.43364e-11       25.000000      1               
  6.12000e-07      1.43246e-11       25.000000      1               
  6.13000e-07      1.43127e-11       25.000000      1               
  6.14000e-07      1.43009e-11       25.000000      1               
  6.15000e-07      1.42891e-11       25.000000      1               
  6.16000e-07      1.42773e-11       25.000000      1               
  6.17000e-07      1.42655e-11       25.000000      1               
  6.18000e-07      1.42537e-11       25.000000      1               
  6.19000e-07      1.42419e-11       25.000000      1               
  6.20000e-07      1.42301e-11       25.000000      1               
  6.21000e-07      1.42184e-11       25.000000      1               
  6.22000e-07      1.42066e-11       25.000000      1               
  6.23000e-07      1.41948e-11       25.000000      1               
  6.24000e-07      1.41831e-11       25.000000      1               
  6.25000e-07      1.41713e-11       25.000000      1               
  6.26000e-07      1.41596e-11       25.000000      1               
  6.27000e-07      1.41478e-11       25.000000      1               
  6.28000e-07      1.41361e-11       25.000000      1               
  6.29000e-07      1.41243e-11       25.000000      1               
  6.30000e-07      1.41126e-11       25.000000      1               
  6.31000e-07      1.41008e-11       25.000000      1               
  6.32000e-07      1.40889e-11       25.000000      1               
  6.33000e-07      1.40770e-11       25.000000      1               
  6.34000e-07      1.40650e-11       25.000000      1               
  6.35000e-07      1.40531e-11       25.000000      1               
  6.36000e-07      1.40412e-11       25.000000      1               
  6.37000e-07      1.40293e-11       25.000000      1               
  6.38000e-07      1.40174e-11       25.000000      1               
  6.39000e-07      1.40055e-11       25.000000      1               
  6.40000e-07      1.39936e-11       25.000000      1               
  6.41000e-07      1.39817e-11       25.000000      1               
  6.42000e-07      1.39699e-11       25.000000      1               
  6.43000e-07      1.39580e-11       25.000000      1               
  6.44000e-07      1.39461e-11       25.000000      1               
  6.45000e-07      1.39342e-11       25.000000      1               
  6.46000e-07      1.39224e-11       25.000000      1               
  6.47000e-07      1.39109e-11       25.000000      1               
  6.48000e-07      1.38991e-11       25.000000      1               
  6.49000e-07      1.38872e-11       25.000000      1               
  6.50000e-07      1.38753e-11       25.000000      1               
  6.51000e-07      1.38635e-11       25.000000      1               
  6.52000e-07      1.38516e-11       25.000000      1               
  6.53000e-07      1.38398e-11       25.000000      1               
  6.54000e-07      1.38279e-11       25.000000      1               
  6.55000e-07      1.38161e-11       25.000000      1               
  6.56000e-07      1.38042e-11       25.000000      1               
  6.57000e-07      1.37924e-11       25.000000      1               
  6.58000e-07      1.37805e-11       25.000000      1               
  6.59000e-07      1.37687e-11       25.000000      1               
  6.60000e-07      1.37568e-11       25.000000      1               
  6.61000e-07      1.37450e-11       25.000000      1               
  6.62000e-07      1.37331e-11       25.000000      1               
  6.63000e-07      1.37213e-11       25.000000      1               
  6.64000e-07      1.37095e-11       25.000000      1               
  6.65000e-07      1.36976e-11       25.000000      1               
  6.66000e-07      1.36858e-11       25.000000      1               
  6.67000e-07      1.36739e-11       25.000000      1               
  6.68000e-07      1.36621e-11       25.000000      1               
  6.69000e-07      1.36503e-11       25.000000      1               
  6.70000e-07      1.36384e-11       25.000000      1               
  6.71000e-07      1.36266e-11       25.000000      1               
  6.72000e-07      1.36148e-11       25.000000      1               
  6.73000e-07      1.36029e-11       25.000000      1               
  6.74000e-07      1.35911e-11       25.000000      1               
  6.75000e-07      1.35793e-11       25.000000      1               
  6.76000e-07      1.35675e-11       25.000000      1               
  6.77000e-07      1.35556e-11       25.000000      1               
  6.78000e-07      1.35438e-11       25.000000      1               
  6.79000e-07      1.35320e-11       25.000000      1               
  6.80000e-07      1.35201e-11       25.000000      1               
  6.81000e-07      1.35083e-11       25.000000      1               
  6.82000e-07      1.34965e-11       25.000000      1               
  6.83000e-07      1.34846e-11       25.000000      1               
  6.84000e-07      1.34728e-11       25.000000      1               
  6.85000e-07      1.34610e-11       25.000000      1               
  6.86000e-07      1.34491e-11       25.000000      1               
  6.87000e-07      1.34373e-11       25.000000      1               
  6.88000e-07      1.34255e-11       25.000000      1               
  6.89000e-07      1.34136e-11       25.000000      1               
  6.90000e-07      1.34018e-11       25.000000      1               
  6.91000e-07      1.33900e-11       25.000000      1               
  6.92000e-07      1.33781e-11       25.000000      1               
  6.93000e-07      1.33663e-11       25.000000      1               
  6.94000e-07      1.33545e-11       25.000000      1               
  6.95000e-07      1.33426e-11       25.000000      1               
  6.96000e-07      1.33308e-11       25.000000      1               
  6.97000e-07      1.33190e-11       25.000000      1               
  6.98000e-07      1.33071e-11       25.000000      1               
  6.99000e-07      1.32953e-11       25.000000      1               
  7.00000e-07      1.32834e-11       25.000000      1               
