$DATA1 SOURCE='HSPICE' VERSION='J-2014.09 64-BIT'
.TITLE 'simulating a nand3's transitions and sweeping its fanout'
 fanout           delay_h_to_l     delay_l_to_h     temper          
                  alter#          
    1.000000       9.28821e-12      3.47065e-11       25.000000     
                  1               
    2.000000       1.08677e-11      3.69232e-11       25.000000     
                  1               
    3.000000       1.22970e-11      3.90708e-11       25.000000     
                  1               
    4.000000       1.36148e-11      4.11786e-11       25.000000     
                  1               
    5.000000       1.48473e-11      4.33424e-11       25.000000     
                  1               
    6.000000       1.60139e-11      4.53831e-11       25.000000     
                  1               
    7.000000       1.71578e-11      4.74543e-11       25.000000     
                  1               
    8.000000       1.82407e-11      4.94647e-11       25.000000     
                  1               
    9.000000       1.92840e-11      5.15394e-11       25.000000     
                  1               
   10.000000       2.02968e-11      5.35571e-11       25.000000     
                  1               
   11.000000       2.12756e-11      5.56221e-11       25.000000     
                  1               
   12.000000       2.22273e-11      5.76180e-11       25.000000     
                  1               
   13.000000       2.31533e-11      5.97350e-11       25.000000     
                  1               
   14.000000       2.40753e-11      6.18062e-11       25.000000     
                  1               
   15.000000       2.50040e-11      6.37741e-11       25.000000     
                  1               
   16.000000       2.59127e-11      6.58393e-11       25.000000     
                  1               
   17.000000       2.68043e-11      6.79280e-11       25.000000     
                  1               
   18.000000       2.76812e-11      7.00029e-11       25.000000     
                  1               
   19.000000       2.85451e-11      7.20073e-11       25.000000     
                  1               
   20.000000       2.93942e-11      7.41142e-11       25.000000     
                  1               
   21.000000       3.02218e-11      7.61390e-11       25.000000     
                  1               
   22.000000       3.10353e-11      7.82171e-11       25.000000     
                  1               
   23.000000       3.18449e-11      8.02968e-11       25.000000     
                  1               
   24.000000       3.27054e-11      8.23717e-11       25.000000     
                  1               
   25.000000       3.35527e-11      8.44183e-11       25.000000     
                  1               
   26.000000       3.43886e-11      8.64964e-11       25.000000     
                  1               
   27.000000       3.52146e-11      8.86048e-11       25.000000     
                  1               
   28.000000       3.60306e-11      9.07089e-11       25.000000     
                  1               
   29.000000       3.68369e-11      9.28174e-11       25.000000     
                  1               
   30.000000       3.76340e-11      9.48820e-11       25.000000     
                  1               
   31.000000       3.84223e-11      9.70124e-11       25.000000     
                  1               
   32.000000       3.92009e-11      9.91239e-11       25.000000     
                  1               
   33.000000       3.99713e-11      1.01205e-10       25.000000     
                  1               
   34.000000       4.08079e-11      1.03322e-10       25.000000     
                  1               
   35.000000       4.16387e-11      1.05414e-10       25.000000     
                  1               
   36.000000       4.24618e-11      1.07547e-10       25.000000     
                  1               
   37.000000       4.32777e-11      1.09641e-10       25.000000     
                  1               
   38.000000       4.40871e-11      1.11793e-10       25.000000     
                  1               
   39.000000       4.48904e-11      1.13869e-10       25.000000     
                  1               
   40.000000       4.56878e-11      1.15975e-10       25.000000     
                  1               
   41.000000       4.64797e-11      1.18097e-10       25.000000     
                  1               
   42.000000       4.72661e-11      1.20221e-10       25.000000     
                  1               
   43.000000       4.80472e-11      1.22356e-10       25.000000     
                  1               
   44.000000       4.88232e-11      1.24455e-10       25.000000     
                  1               
   45.000000       4.95940e-11      1.26573e-10       25.000000     
                  1               
   46.000000       5.03599e-11      1.28657e-10       25.000000     
                  1               
   47.000000       5.11391e-11      1.30775e-10       25.000000     
                  1               
   48.000000       5.19511e-11      1.32902e-10       25.000000     
                  1               
   49.000000       5.27581e-11      1.35012e-10       25.000000     
                  1               
   50.000000       5.35603e-11      1.37199e-10       25.000000     
                  1               
   51.000000       5.43579e-11      1.39321e-10       25.000000     
                  1               
   52.000000       5.51510e-11      1.41350e-10       25.000000     
                  1               
   53.000000       5.59398e-11      1.43541e-10       25.000000     
                  1               
   54.000000       5.67246e-11      1.45642e-10       25.000000     
                  1               
   55.000000       5.75055e-11      1.47750e-10       25.000000     
                  1               
   56.000000       5.82826e-11      1.49865e-10       25.000000     
                  1               
   57.000000       5.90926e-11      1.51986e-10       25.000000     
                  1               
   58.000000       5.99114e-11      1.54099e-10       25.000000     
                  1               
   59.000000       6.07269e-11      1.56223e-10       25.000000     
                  1               
   60.000000       6.15392e-11      1.58368e-10       25.000000     
                  1               
   61.000000       6.23477e-11      1.60482e-10       25.000000     
                  1               
   62.000000       6.31515e-11      1.62605e-10       25.000000     
                  1               
   63.000000       6.39499e-11      1.64724e-10       25.000000     
                  1               
   64.000000       6.47437e-11      1.66895e-10       25.000000     
                  1               
   65.000000       6.55326e-11      1.69045e-10       25.000000     
                  1               
   66.000000       6.63537e-11      1.71150e-10       25.000000     
                  1               
   67.000000       6.71991e-11      1.73286e-10       25.000000     
                  1               
   68.000000       6.80396e-11      1.75418e-10       25.000000     
                  1               
   69.000000       6.88753e-11      1.77522e-10       25.000000     
                  1               
   70.000000       6.97064e-11      1.79653e-10       25.000000     
                  1               
   71.000000       7.05329e-11      1.81842e-10       25.000000     
                  1               
   72.000000       7.13550e-11      1.83922e-10       25.000000     
                  1               
   73.000000       7.21729e-11      1.86065e-10       25.000000     
                  1               
   74.000000       7.29867e-11      1.88162e-10       25.000000     
                  1               
   75.000000       7.37965e-11      1.90331e-10       25.000000     
                  1               
   76.000000       7.46023e-11      1.92445e-10       25.000000     
                  1               
   77.000000       7.54044e-11      1.94633e-10       25.000000     
                  1               
   78.000000       7.62028e-11      1.96745e-10       25.000000     
                  1               
   79.000000       7.69975e-11      1.98943e-10       25.000000     
                  1               
   80.000000       7.77887e-11      2.01018e-10       25.000000     
                  1               
   81.000000       7.85762e-11      2.03145e-10       25.000000     
                  1               
   82.000000       7.93588e-11      2.05306e-10       25.000000     
                  1               
   83.000000       8.01349e-11      2.07441e-10       25.000000     
                  1               
   84.000000       8.09355e-11      2.09529e-10       25.000000     
                  1               
   85.000000       8.17887e-11      2.11641e-10       25.000000     
                  1               
   86.000000       8.26390e-11      2.13895e-10       25.000000     
                  1               
   87.000000       8.34867e-11      2.16055e-10       25.000000     
                  1               
   88.000000       8.43321e-11      2.18119e-10       25.000000     
                  1               
   89.000000       8.51725e-11      2.20257e-10       25.000000     
                  1               
   90.000000       8.60080e-11      2.22385e-10       25.000000     
                  1               
   91.000000       8.68383e-11      2.24579e-10       25.000000     
                  1               
   92.000000       8.76635e-11      2.26637e-10       25.000000     
                  1               
   93.000000       8.84836e-11      2.28854e-10       25.000000     
                  1               
   94.000000       8.92985e-11      2.30912e-10       25.000000     
                  1               
   95.000000       9.01081e-11      2.33036e-10       25.000000     
                  1               
   96.000000       9.09126e-11      2.35245e-10       25.000000     
                  1               
   97.000000       9.17118e-11      2.37287e-10       25.000000     
                  1               
   98.000000       9.25058e-11      2.39350e-10       25.000000     
                  1               
   99.000000       9.32942e-11      2.41486e-10       25.000000     
                  1               
  100.000000       9.40768e-11      2.43710e-10       25.000000     
                  1               
  101.000000       9.49070e-11      2.45735e-10       25.000000     
                  1               
  102.000000       9.57447e-11      2.47954e-10       25.000000     
                  1               
  103.000000       9.65782e-11      2.49974e-10       25.000000     
                  1               
  104.000000       9.74072e-11      2.52156e-10       25.000000     
                  1               
  105.000000       9.83350e-11      2.54179e-10       25.000000     
                  1               
  106.000000       9.91827e-11      2.56371e-10       25.000000     
                  1               
  107.000000       1.00027e-10      2.58523e-10       25.000000     
                  1               
  108.000000       1.00868e-10      2.60628e-10       25.000000     
                  1               
  109.000000       1.01705e-10      2.62722e-10       25.000000     
                  1               
  110.000000       1.02538e-10      2.64747e-10       25.000000     
                  1               
  111.000000       1.03367e-10      2.66970e-10       25.000000     
                  1               
  112.000000       1.04191e-10      2.69069e-10       25.000000     
                  1               
  113.000000       1.05010e-10      2.71223e-10       25.000000     
                  1               
  114.000000       1.05824e-10      2.73281e-10       25.000000     
                  1               
  115.000000       1.06633e-10      2.75368e-10       25.000000     
                  1               
  116.000000       1.07436e-10      2.77321e-10       25.000000     
                  1               
  117.000000       1.08234e-10      2.79494e-10       25.000000     
                  1               
  118.000000       1.09027e-10      2.81561e-10       25.000000     
                  1               
  119.000000       1.09867e-10      2.83596e-10       25.000000     
                  1               
  120.000000       1.10719e-10      2.85641e-10       25.000000     
                  1               
  121.000000       1.11572e-10      2.87746e-10       25.000000     
                  1               
  122.000000       1.12425e-10      2.89692e-10       25.000000     
                  1               
  123.000000       1.13225e-10      2.91830e-10       25.000000     
                  1               
  124.000000       1.14073e-10      2.93894e-10       25.000000     
                  1               
  125.000000       1.14922e-10      2.95954e-10       25.000000     
                  1               
  126.000000       1.15771e-10      2.97931e-10       25.000000     
                  1               
  127.000000       1.16619e-10      3.00026e-10       25.000000     
                  1               
  128.000000       1.17468e-10      3.01924e-10       25.000000     
                  1               
