$DATA1 SOURCE='HSPICE' VERSION='J-2014.09 64-BIT'
.TITLE 'simulating a nor2 for figuring out le and intrinsic delay'
 fanout           delay_l_to_h     delay_h_to_l     temper          
                  alter#          
    1.000000       7.58261e-12      3.90405e-11       25.000000     
                  1               
    2.000000       8.93275e-12      4.10402e-11       25.000000     
                  1               
    3.000000       1.01635e-11      4.30304e-11       25.000000     
                  1               
    4.000000       1.13064e-11      4.48324e-11       25.000000     
                  1               
    5.000000       1.23797e-11      4.67036e-11       25.000000     
                  1               
    6.000000       1.33948e-11      4.84838e-11       25.000000     
                  1               
    7.000000       1.43522e-11      5.01994e-11       25.000000     
                  1               
    8.000000       1.52643e-11      5.19406e-11       25.000000     
                  1               
    9.000000       1.61389e-11      5.36755e-11       25.000000     
                  1               
   10.000000       1.69827e-11      5.54078e-11       25.000000     
                  1               
   11.000000       1.77988e-11      5.71051e-11       25.000000     
                  1               
   12.000000       1.85884e-11      5.87540e-11       25.000000     
                  1               
   13.000000       1.93605e-11      6.03970e-11       25.000000     
                  1               
   14.000000       2.01114e-11      6.20477e-11       25.000000     
                  1               
   15.000000       2.08407e-11      6.36937e-11       25.000000     
                  1               
   16.000000       2.15604e-11      6.52041e-11       25.000000     
                  1               
   17.000000       2.22542e-11      6.68600e-11       25.000000     
                  1               
   18.000000       2.29329e-11      6.85353e-11       25.000000     
                  1               
   19.000000       2.35978e-11      7.01469e-11       25.000000     
                  1               
   20.000000       2.42502e-11      7.15065e-11       25.000000     
                  1               
   21.000000       2.48908e-11      7.32025e-11       25.000000     
                  1               
   22.000000       2.55205e-11      7.48852e-11       25.000000     
                  1               
   23.000000       2.61651e-11      7.63761e-11       25.000000     
                  1               
   24.000000       2.67850e-11      7.79990e-11       25.000000     
                  1               
   25.000000       2.73954e-11      7.95393e-11       25.000000     
                  1               
   26.000000       2.79967e-11      8.11081e-11       25.000000     
                  1               
   27.000000       2.85897e-11      8.26856e-11       25.000000     
                  1               
   28.000000       2.91747e-11      8.41928e-11       25.000000     
                  1               
   29.000000       2.97523e-11      8.58621e-11       25.000000     
                  1               
   30.000000       3.03229e-11      8.72051e-11       25.000000     
                  1               
   31.000000       3.08867e-11      8.88985e-11       25.000000     
                  1               
   32.000000       3.14443e-11      9.04870e-11       25.000000     
                  1               
   33.000000       3.19959e-11      9.22119e-11       25.000000     
                  1               
   34.000000       3.25417e-11      9.37025e-11       25.000000     
                  1               
   35.000000       3.30821e-11      9.52107e-11       25.000000     
                  1               
   36.000000       3.36174e-11      9.66249e-11       25.000000     
                  1               
   37.000000       3.41476e-11      9.83476e-11       25.000000     
                  1               
   38.000000       3.46732e-11      9.99856e-11       25.000000     
                  1               
   39.000000       3.51941e-11      1.01656e-10       25.000000     
                  1               
   40.000000       3.57105e-11      1.03231e-10       25.000000     
                  1               
   41.000000       3.62226e-11      1.04602e-10       25.000000     
                  1               
   42.000000       3.67306e-11      1.06170e-10       25.000000     
                  1               
   43.000000       3.72331e-11      1.07769e-10       25.000000     
                  1               
   44.000000       3.77483e-11      1.09202e-10       25.000000     
                  1               
   45.000000       3.82602e-11      1.11191e-10       25.000000     
                  1               
   46.000000       3.87681e-11      1.12763e-10       25.000000     
                  1               
   47.000000       3.92723e-11      1.14319e-10       25.000000     
                  1               
   48.000000       3.97729e-11      1.15574e-10       25.000000     
                  1               
   49.000000       4.02699e-11      1.17319e-10       25.000000     
                  1               
   50.000000       4.07635e-11      1.18846e-10       25.000000     
                  1               
   51.000000       4.12538e-11      1.20499e-10       25.000000     
                  1               
   52.000000       4.17409e-11      1.22053e-10       25.000000     
                  1               
   53.000000       4.22249e-11      1.23749e-10       25.000000     
                  1               
   54.000000       4.27058e-11      1.25352e-10       25.000000     
                  1               
   55.000000       4.31839e-11      1.26955e-10       25.000000     
                  1               
   56.000000       4.36590e-11      1.28587e-10       25.000000     
                  1               
   57.000000       4.41314e-11      1.30144e-10       25.000000     
                  1               
   58.000000       4.46011e-11      1.31813e-10       25.000000     
                  1               
   59.000000       4.50682e-11      1.33343e-10       25.000000     
                  1               
   60.000000       4.55325e-11      1.35015e-10       25.000000     
                  1               
   61.000000       4.59932e-11      1.36632e-10       25.000000     
                  1               
   62.000000       4.64513e-11      1.38049e-10       25.000000     
                  1               
   63.000000       4.69068e-11      1.39607e-10       25.000000     
                  1               
   64.000000       4.73603e-11      1.41334e-10       25.000000     
                  1               
   65.000000       4.78338e-11      1.42952e-10       25.000000     
                  1               
   66.000000       4.83053e-11      1.44536e-10       25.000000     
                  1               
   67.000000       4.87749e-11      1.46205e-10       25.000000     
                  1               
   68.000000       4.92427e-11      1.47489e-10       25.000000     
                  1               
   69.000000       4.97086e-11      1.49164e-10       25.000000     
                  1               
   70.000000       5.01728e-11      1.50853e-10       25.000000     
                  1               
   71.000000       5.06353e-11      1.52452e-10       25.000000     
                  1               
   72.000000       5.10961e-11      1.54140e-10       25.000000     
                  1               
   73.000000       5.15553e-11      1.55606e-10       25.000000     
                  1               
   74.000000       5.20130e-11      1.57225e-10       25.000000     
                  1               
   75.000000       5.24692e-11      1.58643e-10       25.000000     
                  1               
   76.000000       5.29239e-11      1.60129e-10       25.000000     
                  1               
   77.000000       5.33772e-11      1.61962e-10       25.000000     
                  1               
   78.000000       5.38290e-11      1.63426e-10       25.000000     
                  1               
   79.000000       5.42795e-11      1.65372e-10       25.000000     
                  1               
   80.000000       5.47287e-11      1.67004e-10       25.000000     
                  1               
   81.000000       5.51758e-11      1.68355e-10       25.000000     
                  1               
   82.000000       5.56219e-11      1.69787e-10       25.000000     
                  1               
   83.000000       5.60668e-11      1.71816e-10       25.000000     
                  1               
   84.000000       5.65096e-11      1.73216e-10       25.000000     
                  1               
   85.000000       5.69508e-11      1.74565e-10       25.000000     
                  1               
   86.000000       5.73905e-11      1.76142e-10       25.000000     
                  1               
   87.000000       5.78288e-11      1.77756e-10       25.000000     
                  1               
   88.000000       5.82657e-11      1.79466e-10       25.000000     
                  1               
   89.000000       5.87007e-11      1.81064e-10       25.000000     
                  1               
   90.000000       5.91348e-11      1.82751e-10       25.000000     
                  1               
   91.000000       5.95675e-11      1.84359e-10       25.000000     
                  1               
   92.000000       5.99989e-11      1.85955e-10       25.000000     
                  1               
   93.000000       6.04288e-11      1.87498e-10       25.000000     
                  1               
   94.000000       6.08695e-11      1.89065e-10       25.000000     
                  1               
   95.000000       6.13145e-11      1.90540e-10       25.000000     
                  1               
   96.000000       6.17586e-11      1.91942e-10       25.000000     
                  1               
   97.000000       6.22018e-11      1.93465e-10       25.000000     
                  1               
   98.000000       6.26442e-11      1.94998e-10       25.000000     
                  1               
   99.000000       6.30854e-11      1.96477e-10       25.000000     
                  1               
  100.000000       6.35262e-11      1.97945e-10       25.000000     
                  1               
  101.000000       6.39661e-11      1.99404e-10       25.000000     
                  1               
  102.000000       6.44052e-11      2.00922e-10       25.000000     
                  1               
  103.000000       6.48435e-11      2.02368e-10       25.000000     
                  1               
  104.000000       6.52810e-11      2.03558e-10       25.000000     
                  1               
  105.000000       6.57176e-11      2.05037e-10       25.000000     
                  1               
  106.000000       6.61565e-11      2.06452e-10       25.000000     
                  1               
  107.000000       6.65989e-11      2.08154e-10       25.000000     
                  1               
  108.000000       6.70421e-11      2.09228e-10       25.000000     
                  1               
  109.000000       6.74856e-11      2.10634e-10       25.000000     
                  1               
  110.000000       6.79285e-11      2.12245e-10       25.000000     
                  1               
  111.000000       6.83709e-11      2.13307e-10       25.000000     
                  1               
  112.000000       6.88127e-11      2.14752e-10       25.000000     
                  1               
  113.000000       6.92541e-11      2.16114e-10       25.000000     
                  1               
  114.000000       6.96950e-11      2.17392e-10       25.000000     
                  1               
  115.000000       7.01355e-11      2.18666e-10       25.000000     
                  1               
  116.000000       7.05757e-11      2.19831e-10       25.000000     
                  1               
  117.000000       7.09743e-11      2.21099e-10       25.000000     
                  1               
  118.000000       7.14533e-11      2.22195e-10       25.000000     
                  1               
  119.000000       7.18906e-11      2.23337e-10       25.000000     
                  1               
  120.000000       7.23273e-11      2.24555e-10       25.000000     
                  1               
  121.000000       7.27993e-11      2.25352e-10       25.000000     
                  1               
  122.000000       7.32304e-11      2.26698e-10       25.000000     
                  1               
  123.000000       7.36609e-11      2.27778e-10       25.000000     
                  1               
  124.000000       7.40900e-11      2.28834e-10       25.000000     
                  1               
  125.000000       7.45176e-11      2.29871e-10       25.000000     
                  1               
  126.000000       7.49447e-11      2.30877e-10       25.000000     
                  1               
  127.000000       7.53710e-11      2.31857e-10       25.000000     
                  1               
  128.000000       7.57964e-11      2.32812e-10       25.000000     
                  1               
