$DATA1 SOURCE='HSPICE' VERSION='J-2014.09 64-BIT'
.TITLE 'simulating a nor2 for optimal low-to-high transition'
 pmos_width_param delay_l_to_h     temper           alter#          
  1.10000e-06      1.24632e-11       25.000000      1               
  1.10100e-06      1.24566e-11       25.000000      1               
  1.10200e-06      1.24508e-11       25.000000      1               
  1.10300e-06      1.24450e-11       25.000000      1               
  1.10400e-06      1.24391e-11       25.000000      1               
  1.10500e-06      1.24333e-11       25.000000      1               
  1.10600e-06      1.24275e-11       25.000000      1               
  1.10700e-06      1.24217e-11       25.000000      1               
  1.10800e-06      1.24159e-11       25.000000      1               
  1.10900e-06      1.24101e-11       25.000000      1               
  1.11000e-06      1.24042e-11       25.000000      1               
  1.11100e-06      1.23984e-11       25.000000      1               
  1.11200e-06      1.23926e-11       25.000000      1               
  1.11300e-06      1.23868e-11       25.000000      1               
  1.11400e-06      1.23810e-11       25.000000      1               
  1.11500e-06      1.23751e-11       25.000000      1               
  1.11600e-06      1.23693e-11       25.000000      1               
  1.11700e-06      1.23635e-11       25.000000      1               
  1.11800e-06      1.23577e-11       25.000000      1               
  1.11900e-06      1.23518e-11       25.000000      1               
  1.12000e-06      1.23460e-11       25.000000      1               
  1.12100e-06      1.23402e-11       25.000000      1               
  1.12200e-06      1.23343e-11       25.000000      1               
  1.12300e-06      1.23285e-11       25.000000      1               
  1.12400e-06      1.23227e-11       25.000000      1               
  1.12500e-06      1.23168e-11       25.000000      1               
  1.12600e-06      1.23110e-11       25.000000      1               
  1.12700e-06      1.23052e-11       25.000000      1               
  1.12800e-06      1.22993e-11       25.000000      1               
  1.12900e-06      1.22935e-11       25.000000      1               
  1.13000e-06      1.22877e-11       25.000000      1               
  1.13100e-06      1.22818e-11       25.000000      1               
  1.13200e-06      1.22760e-11       25.000000      1               
  1.13300e-06      1.22701e-11       25.000000      1               
  1.13400e-06      1.22643e-11       25.000000      1               
  1.13500e-06      1.22584e-11       25.000000      1               
  1.13600e-06      1.22526e-11       25.000000      1               
  1.13700e-06      1.22468e-11       25.000000      1               
  1.13800e-06      1.22409e-11       25.000000      1               
  1.13900e-06      1.22351e-11       25.000000      1               
  1.14000e-06      1.22292e-11       25.000000      1               
  1.14100e-06      1.22234e-11       25.000000      1               
  1.14200e-06      1.22175e-11       25.000000      1               
  1.14300e-06      1.22117e-11       25.000000      1               
  1.14400e-06      1.22058e-11       25.000000      1               
  1.14500e-06      1.21999e-11       25.000000      1               
  1.14600e-06      1.21941e-11       25.000000      1               
  1.14700e-06      1.21882e-11       25.000000      1               
  1.14800e-06      1.21824e-11       25.000000      1               
  1.14900e-06      1.21765e-11       25.000000      1               
  1.15000e-06      1.21707e-11       25.000000      1               
  1.15100e-06      1.21648e-11       25.000000      1               
  1.15200e-06      1.21589e-11       25.000000      1               
  1.15300e-06      1.21530e-11       25.000000      1               
  1.15400e-06      1.21471e-11       25.000000      1               
  1.15500e-06      1.21412e-11       25.000000      1               
  1.15600e-06      1.21353e-11       25.000000      1               
  1.15700e-06      1.21294e-11       25.000000      1               
  1.15800e-06      1.21235e-11       25.000000      1               
  1.15900e-06      1.21176e-11       25.000000      1               
  1.16000e-06      1.21117e-11       25.000000      1               
  1.16100e-06      1.21058e-11       25.000000      1               
  1.16200e-06      1.20999e-11       25.000000      1               
  1.16300e-06      1.20940e-11       25.000000      1               
  1.16400e-06      1.20881e-11       25.000000      1               
  1.16500e-06      1.20822e-11       25.000000      1               
  1.16600e-06      1.20763e-11       25.000000      1               
  1.16700e-06      1.20704e-11       25.000000      1               
  1.16800e-06      1.20645e-11       25.000000      1               
  1.16900e-06      1.20586e-11       25.000000      1               
  1.17000e-06      1.20527e-11       25.000000      1               
  1.17100e-06      1.20467e-11       25.000000      1               
  1.17200e-06      1.20408e-11       25.000000      1               
  1.17300e-06      1.20349e-11       25.000000      1               
  1.17400e-06      1.20290e-11       25.000000      1               
  1.17500e-06      1.20231e-11       25.000000      1               
  1.17600e-06      1.20172e-11       25.000000      1               
  1.17700e-06      1.20112e-11       25.000000      1               
  1.17800e-06      1.20054e-11       25.000000      1               
  1.17900e-06      1.19996e-11       25.000000      1               
  1.18000e-06      1.19938e-11       25.000000      1               
  1.18100e-06      1.19880e-11       25.000000      1               
  1.18200e-06      1.19822e-11       25.000000      1               
  1.18300e-06      1.19764e-11       25.000000      1               
  1.18400e-06      1.19698e-11       25.000000      1               
  1.18500e-06      1.19640e-11       25.000000      1               
  1.18600e-06      1.19581e-11       25.000000      1               
  1.18700e-06      1.19523e-11       25.000000      1               
  1.18800e-06      1.19465e-11       25.000000      1               
  1.18900e-06      1.19407e-11       25.000000      1               
  1.19000e-06      1.19348e-11       25.000000      1               
  1.19100e-06      1.19290e-11       25.000000      1               
  1.19200e-06      1.19232e-11       25.000000      1               
  1.19300e-06      1.19173e-11       25.000000      1               
  1.19400e-06      1.19115e-11       25.000000      1               
  1.19500e-06      1.19057e-11       25.000000      1               
  1.19600e-06      1.19005e-11       25.000000      1               
  1.19700e-06      1.18946e-11       25.000000      1               
  1.19800e-06      1.18888e-11       25.000000      1               
  1.19900e-06      1.18829e-11       25.000000      1               
  1.20000e-06      1.18771e-11       25.000000      1               
  1.20100e-06      1.18712e-11       25.000000      1               
  1.20200e-06      1.18654e-11       25.000000      1               
  1.20300e-06      1.18595e-11       25.000000      1               
  1.20400e-06      1.18537e-11       25.000000      1               
  1.20500e-06      1.18478e-11       25.000000      1               
  1.20600e-06      1.18420e-11       25.000000      1               
  1.20700e-06      1.18361e-11       25.000000      1               
  1.20800e-06      1.18302e-11       25.000000      1               
  1.20900e-06      1.18243e-11       25.000000      1               
  1.21000e-06      1.18185e-11       25.000000      1               
  1.21100e-06      1.18126e-11       25.000000      1               
  1.21200e-06      1.18067e-11       25.000000      1               
  1.21300e-06      1.18008e-11       25.000000      1               
  1.21400e-06      1.17949e-11       25.000000      1               
  1.21500e-06      1.17890e-11       25.000000      1               
  1.21600e-06      1.17832e-11       25.000000      1               
  1.21700e-06      1.17773e-11       25.000000      1               
  1.21800e-06      1.17714e-11       25.000000      1               
  1.21900e-06      1.17655e-11       25.000000      1               
  1.22000e-06      1.17596e-11       25.000000      1               
  1.22100e-06      1.17537e-11       25.000000      1               
  1.22200e-06      1.17478e-11       25.000000      1               
  1.22300e-06      1.17419e-11       25.000000      1               
  1.22400e-06      1.17360e-11       25.000000      1               
  1.22500e-06      1.17301e-11       25.000000      1               
  1.22600e-06      1.17242e-11       25.000000      1               
  1.22700e-06      1.17183e-11       25.000000      1               
  1.22800e-06      1.17124e-11       25.000000      1               
  1.22900e-06      1.17064e-11       25.000000      1               
  1.23000e-06      1.17005e-11       25.000000      1               
  1.23100e-06      1.16946e-11       25.000000      1               
  1.23200e-06      1.16887e-11       25.000000      1               
  1.23300e-06      1.16828e-11       25.000000      1               
  1.23400e-06      1.16769e-11       25.000000      1               
  1.23500e-06      1.16709e-11       25.000000      1               
  1.23600e-06      1.16650e-11       25.000000      1               
  1.23700e-06      1.16591e-11       25.000000      1               
  1.23800e-06      1.16532e-11       25.000000      1               
  1.23900e-06      1.16472e-11       25.000000      1               
  1.24000e-06      1.16413e-11       25.000000      1               
  1.24100e-06      1.16354e-11       25.000000      1               
  1.24200e-06      1.16294e-11       25.000000      1               
  1.24300e-06      1.16235e-11       25.000000      1               
  1.24400e-06      1.16176e-11       25.000000      1               
  1.24500e-06      1.16116e-11       25.000000      1               
  1.24600e-06      1.16057e-11       25.000000      1               
  1.24700e-06      1.15998e-11       25.000000      1               
  1.24800e-06      1.15938e-11       25.000000      1               
  1.24900e-06      1.15879e-11       25.000000      1               
  1.25000e-06      1.15819e-11       25.000000      1               
  1.25100e-06      1.15760e-11       25.000000      1               
  1.25200e-06      1.15700e-11       25.000000      1               
  1.25300e-06      1.15641e-11       25.000000      1               
  1.25400e-06      1.15581e-11       25.000000      1               
  1.25500e-06      1.15522e-11       25.000000      1               
  1.25600e-06      1.15462e-11       25.000000      1               
  1.25700e-06      1.15402e-11       25.000000      1               
  1.25800e-06      1.15343e-11       25.000000      1               
  1.25900e-06      1.15283e-11       25.000000      1               
  1.26000e-06      1.15223e-11       25.000000      1               
  1.26100e-06      1.15164e-11       25.000000      1               
  1.26200e-06      1.15104e-11       25.000000      1               
  1.26300e-06      1.15044e-11       25.000000      1               
  1.26400e-06      1.14985e-11       25.000000      1               
  1.26500e-06      1.14925e-11       25.000000      1               
  1.26600e-06      1.14865e-11       25.000000      1               
  1.26700e-06      1.14805e-11       25.000000      1               
  1.26800e-06      1.14746e-11       25.000000      1               
  1.26900e-06      1.14686e-11       25.000000      1               
  1.27000e-06      1.14626e-11       25.000000      1               
  1.27100e-06      1.14566e-11       25.000000      1               
  1.27200e-06      1.14506e-11       25.000000      1               
  1.27300e-06      1.14446e-11       25.000000      1               
  1.27400e-06      1.14386e-11       25.000000      1               
  1.27500e-06      1.14327e-11       25.000000      1               
  1.27600e-06      1.14267e-11       25.000000      1               
  1.27700e-06      1.14207e-11       25.000000      1               
  1.27800e-06      1.14147e-11       25.000000      1               
  1.27900e-06      1.14087e-11       25.000000      1               
  1.28000e-06      1.14027e-11       25.000000      1               
  1.28100e-06      1.13967e-11       25.000000      1               
  1.28200e-06      1.13907e-11       25.000000      1               
  1.28300e-06      1.13847e-11       25.000000      1               
  1.28400e-06      1.13787e-11       25.000000      1               
  1.28500e-06      1.13726e-11       25.000000      1               
  1.28600e-06      1.13666e-11       25.000000      1               
  1.28700e-06      1.13606e-11       25.000000      1               
  1.28800e-06      1.13546e-11       25.000000      1               
  1.28900e-06      1.13486e-11       25.000000      1               
  1.29000e-06      1.13426e-11       25.000000      1               
  1.29100e-06      1.13366e-11       25.000000      1               
  1.29200e-06      1.13305e-11       25.000000      1               
  1.29300e-06      1.13245e-11       25.000000      1               
  1.29400e-06      1.13185e-11       25.000000      1               
  1.29500e-06      1.13125e-11       25.000000      1               
  1.29600e-06      1.13064e-11       25.000000      1               
  1.29700e-06      1.13004e-11       25.000000      1               
  1.29800e-06      1.12944e-11       25.000000      1               
  1.29900e-06      1.12883e-11       25.000000      1               
  1.30000e-06      1.12823e-11       25.000000      1               
