$DATA1 SOURCE='HSPICE' VERSION='G-2012.06-SP1 32-BIT'
.TITLE 'connecting a dut inverter with f04 configuration'
 pmos_width_param delay_l_to_h     delay_h_to_l     temper            
                  alter#            
  1.00000e-07      1.41856e-11      1.09134e-11       25.000000       
                  1                 
  1.01000e-07      1.41502e-11      1.09299e-11       25.000000       
                  1                 
  1.02000e-07      1.41158e-11      1.09465e-11       25.000000       
                  1                 
  1.03000e-07      1.40824e-11      1.09634e-11       25.000000       
                  1                 
  1.04000e-07      1.40499e-11      1.09805e-11       25.000000       
                  1                 
  1.05000e-07      1.40182e-11      1.09978e-11       25.000000       
                  1                 
  1.06000e-07      1.39875e-11      1.10153e-11       25.000000       
                  1                 
  1.07000e-07      1.39575e-11      1.10330e-11       25.000000       
                  1                 
  1.08000e-07      1.39284e-11      1.10508e-11       25.000000       
                  1                 
  1.09000e-07      1.39000e-11      1.10689e-11       25.000000       
                  1                 
  1.10000e-07      1.38724e-11      1.10872e-11       25.000000       
                  1                 
  1.11000e-07      1.38456e-11      1.11056e-11       25.000000       
                  1                 
  1.12000e-07      1.38194e-11      1.11242e-11       25.000000       
                  1                 
  1.13000e-07      1.37940e-11      1.11430e-11       25.000000       
                  1                 
  1.14000e-07      1.37692e-11      1.11620e-11       25.000000       
                  1                 
  1.15000e-07      1.37450e-11      1.11811e-11       25.000000       
                  1                 
  1.16000e-07      1.37215e-11      1.12004e-11       25.000000       
                  1                 
  1.17000e-07      1.36986e-11      1.12199e-11       25.000000       
                  1                 
  1.18000e-07      1.36763e-11      1.12395e-11       25.000000       
                  1                 
  1.19000e-07      1.36546e-11      1.12593e-11       25.000000       
                  1                 
  1.20000e-07      1.36334e-11      1.12792e-11       25.000000       
                  1                 
  1.21000e-07      1.36128e-11      1.12992e-11       25.000000       
                  1                 
  1.22000e-07      1.35927e-11      1.13194e-11       25.000000       
                  1                 
  1.23000e-07      1.35732e-11      1.13398e-11       25.000000       
                  1                 
  1.24000e-07      1.35541e-11      1.13603e-11       25.000000       
                  1                 
  1.25000e-07      1.35355e-11      1.13809e-11       25.000000       
                  1                 
  1.26000e-07      1.35174e-11      1.14016e-11       25.000000       
                  1                 
  1.27000e-07      1.34998e-11      1.14225e-11       25.000000       
                  1                 
  1.28000e-07      1.34826e-11      1.14435e-11       25.000000       
                  1                 
  1.29000e-07      1.34659e-11      1.14646e-11       25.000000       
                  1                 
  1.30000e-07      1.34496e-11      1.14858e-11       25.000000       
                  1                 
  1.31000e-07      1.34337e-11      1.15071e-11       25.000000       
                  1                 
  1.32000e-07      1.34182e-11      1.15286e-11       25.000000       
                  1                 
  1.33000e-07      1.34031e-11      1.15502e-11       25.000000       
                  1                 
  1.34000e-07      1.33884e-11      1.15718e-11       25.000000       
                  1                 
  1.35000e-07      1.33740e-11      1.15936e-11       25.000000       
                  1                 
  1.36000e-07      1.33601e-11      1.16155e-11       25.000000       
                  1                 
  1.37000e-07      1.33465e-11      1.16375e-11       25.000000       
                  1                 
  1.38000e-07      1.33332e-11      1.16596e-11       25.000000       
                  1                 
  1.39000e-07      1.33203e-11      1.16818e-11       25.000000       
                  1                 
  1.40000e-07      1.33077e-11      1.17040e-11       25.000000       
                  1                 
  1.41000e-07      1.32954e-11      1.17264e-11       25.000000       
                  1                 
  1.42000e-07      1.32835e-11      1.17489e-11       25.000000       
                  1                 
  1.43000e-07      1.32718e-11      1.17714e-11       25.000000       
                  1                 
  1.44000e-07      1.32605e-11      1.17941e-11       25.000000       
                  1                 
  1.45000e-07      1.32494e-11      1.18168e-11       25.000000       
                  1                 
  1.46000e-07      1.32387e-11      1.18396e-11       25.000000       
                  1                 
  1.47000e-07      1.32282e-11      1.18625e-11       25.000000       
                  1                 
  1.48000e-07      1.32180e-11      1.18855e-11       25.000000       
                  1                 
  1.49000e-07      1.32081e-11      1.19085e-11       25.000000       
                  1                 
  1.50000e-07      1.31984e-11      1.19316e-11       25.000000       
                  1                 
  1.51000e-07      1.31890e-11      1.19548e-11       25.000000       
                  1                 
  1.52000e-07      1.31798e-11      1.19781e-11       25.000000       
                  1                 
  1.53000e-07      1.31709e-11      1.20015e-11       25.000000       
                  1                 
  1.54000e-07      1.31622e-11      1.20249e-11       25.000000       
                  1                 
  1.55000e-07      1.31538e-11      1.20484e-11       25.000000       
                  1                 
  1.56000e-07      1.31455e-11      1.20719e-11       25.000000       
                  1                 
  1.57000e-07      1.31375e-11      1.20955e-11       25.000000       
                  1                 
  1.58000e-07      1.31298e-11      1.21192e-11       25.000000       
                  1                 
  1.59000e-07      1.31222e-11      1.21430e-11       25.000000       
                  1                 
  1.60000e-07      1.31148e-11      1.21668e-11       25.000000       
                  1                 
  1.61000e-07      1.31077e-11      1.21907e-11       25.000000       
                  1                 
  1.62000e-07      1.31007e-11      1.22146e-11       25.000000       
                  1                 
  1.63000e-07      1.30939e-11      1.22386e-11       25.000000       
                  1                 
  1.64000e-07      1.30872e-11      1.22627e-11       25.000000       
                  1                 
  1.65000e-07      1.30808e-11      1.22868e-11       25.000000       
                  1                 
  1.66000e-07      1.30745e-11      1.23110e-11       25.000000       
                  1                 
  1.67000e-07      1.30684e-11      1.23352e-11       25.000000       
                  1                 
  1.68000e-07      1.30624e-11      1.23595e-11       25.000000       
                  1                 
  1.69000e-07      1.30567e-11      1.23839e-11       25.000000       
                  1                 
  1.70000e-07      1.30511e-11      1.24083e-11       25.000000       
                  1                 
  1.71000e-07      1.30457e-11      1.24327e-11       25.000000       
                  1                 
  1.72000e-07      1.30404e-11      1.24572e-11       25.000000       
                  1                 
  1.73000e-07      1.30353e-11      1.24818e-11       25.000000       
                  1                 
  1.74000e-07      1.30304e-11      1.25063e-11       25.000000       
                  1                 
  1.75000e-07      1.30256e-11      1.25310e-11       25.000000       
                  1                 
  1.76000e-07      1.30209e-11      1.25557e-11       25.000000       
                  1                 
  1.77000e-07      1.30164e-11      1.25804e-11       25.000000       
                  1                 
  1.78000e-07      1.30121e-11      1.26052e-11       25.000000       
                  1                 
  1.79000e-07      1.30078e-11      1.26300e-11       25.000000       
                  1                 
  1.80000e-07      1.30038e-11      1.26549e-11       25.000000       
                  1                 
  1.81000e-07      1.29998e-11      1.26798e-11       25.000000       
                  1                 
  1.82000e-07      1.29960e-11      1.27048e-11       25.000000       
                  1                 
  1.83000e-07      1.29923e-11      1.27298e-11       25.000000       
                  1                 
  1.84000e-07      1.29888e-11      1.27549e-11       25.000000       
                  1                 
  1.85000e-07      1.29853e-11      1.27799e-11       25.000000       
                  1                 
  1.86000e-07      1.29820e-11      1.28051e-11       25.000000       
                  1                 
  1.87000e-07      1.29788e-11      1.28302e-11       25.000000       
                  1                 
  1.88000e-07      1.29757e-11      1.28554e-11       25.000000       
                  1                 
  1.89000e-07      1.29728e-11      1.28807e-11       25.000000       
                  1                 
  1.90000e-07      1.29699e-11      1.29060e-11       25.000000       
                  1                 
  1.91000e-07      1.29672e-11      1.29313e-11       25.000000       
                  1                 
  1.92000e-07      1.29646e-11      1.29566e-11       25.000000       
                  1                 
  1.93000e-07      1.29620e-11      1.29820e-11       25.000000       
                  1                 
  1.94000e-07      1.29596e-11      1.30075e-11       25.000000       
                  1                 
  1.95000e-07      1.29573e-11      1.30329e-11       25.000000       
                  1                 
  1.96000e-07      1.29551e-11      1.30584e-11       25.000000       
                  1                 
  1.97000e-07      1.29530e-11      1.30840e-11       25.000000       
                  1                 
  1.98000e-07      1.29509e-11      1.31095e-11       25.000000       
                  1                 
  1.99000e-07      1.29490e-11      1.31351e-11       25.000000       
                  1                 
  2.00000e-07      1.29472e-11      1.31607e-11       25.000000       
                  1                 
