$DATA1 SOURCE='HSPICE' VERSION='G-2012.06-SP1 32-BIT'
.TITLE 'connecting a dut inverter with f04 configuration'
 pmos_width_param delay_l_to_h     delay_h_to_l     temper            
                  alter#            
  1.00000e-07      1.42138e-11      1.09475e-11       25.000000       
                  1                 
  1.00100e-07      1.42104e-11      1.09496e-11       25.000000       
                  1                 
  1.00200e-07      1.42071e-11      1.09518e-11       25.000000       
                  1                 
  1.00300e-07      1.42038e-11      1.09540e-11       25.000000       
                  1                 
  1.00400e-07      1.42005e-11      1.09561e-11       25.000000       
                  1                 
  1.00500e-07      1.41972e-11      1.09583e-11       25.000000       
                  1                 
  1.00600e-07      1.41940e-11      1.09605e-11       25.000000       
                  1                 
  1.00700e-07      1.41907e-11      1.09627e-11       25.000000       
                  1                 
  1.00800e-07      1.41874e-11      1.09649e-11       25.000000       
                  1                 
  1.00900e-07      1.41841e-11      1.09672e-11       25.000000       
                  1                 
  1.01000e-07      1.41809e-11      1.09694e-11       25.000000       
                  1                 
  1.01100e-07      1.41776e-11      1.09717e-11       25.000000       
                  1                 
  1.01200e-07      1.41744e-11      1.09739e-11       25.000000       
                  1                 
  1.01300e-07      1.41711e-11      1.09762e-11       25.000000       
                  1                 
  1.01400e-07      1.41679e-11      1.09785e-11       25.000000       
                  1                 
  1.01500e-07      1.41647e-11      1.09808e-11       25.000000       
                  1                 
  1.01600e-07      1.41615e-11      1.09832e-11       25.000000       
                  1                 
  1.01700e-07      1.41583e-11      1.09910e-11       25.000000       
                  1                 
  1.01800e-07      1.41551e-11      1.09927e-11       25.000000       
                  1                 
  1.01900e-07      1.41519e-11      1.09943e-11       25.000000       
                  1                 
  1.02000e-07      1.41488e-11      1.09959e-11       25.000000       
                  1                 
  1.02100e-07      1.41456e-11      1.09975e-11       25.000000       
                  1                 
  1.02200e-07      1.41425e-11      1.09991e-11       25.000000       
                  1                 
  1.02300e-07      1.41393e-11      1.10007e-11       25.000000       
                  1                 
  1.02400e-07      1.41362e-11      1.10023e-11       25.000000       
                  1                 
  1.02500e-07      1.41331e-11      1.10039e-11       25.000000       
                  1                 
  1.02600e-07      1.41299e-11      1.10056e-11       25.000000       
                  1                 
  1.02700e-07      1.41268e-11      1.10072e-11       25.000000       
                  1                 
  1.02800e-07      1.41237e-11      1.10088e-11       25.000000       
                  1                 
  1.02900e-07      1.41206e-11      1.10104e-11       25.000000       
                  1                 
  1.03000e-07      1.41176e-11      1.10121e-11       25.000000       
                  1                 
  1.03100e-07      1.41145e-11      1.10137e-11       25.000000       
                  1                 
  1.03200e-07      1.41114e-11      1.10154e-11       25.000000       
                  1                 
  1.03300e-07      1.41084e-11      1.10170e-11       25.000000       
                  1                 
  1.03400e-07      1.41053e-11      1.10187e-11       25.000000       
                  1                 
  1.03500e-07      1.41023e-11      1.10203e-11       25.000000       
                  1                 
  1.03600e-07      1.40993e-11      1.10220e-11       25.000000       
                  1                 
  1.03700e-07      1.40962e-11      1.10236e-11       25.000000       
                  1                 
  1.03800e-07      1.40932e-11      1.10253e-11       25.000000       
                  1                 
  1.03900e-07      1.40902e-11      1.10270e-11       25.000000       
                  1                 
  1.04000e-07      1.40872e-11      1.10287e-11       25.000000       
                  1                 
  1.04100e-07      1.40842e-11      1.10304e-11       25.000000       
                  1                 
  1.04200e-07      1.40813e-11      1.10321e-11       25.000000       
                  1                 
  1.04300e-07      1.40783e-11      1.10338e-11       25.000000       
                  1                 
  1.04400e-07      1.40753e-11      1.10355e-11       25.000000       
                  1                 
  1.04500e-07      1.40724e-11      1.10370e-11       25.000000       
                  1                 
  1.04600e-07      1.40694e-11      1.10386e-11       25.000000       
                  1                 
  1.04700e-07      1.40665e-11      1.10402e-11       25.000000       
                  1                 
  1.04800e-07      1.40636e-11      1.10417e-11       25.000000       
                  1                 
  1.04900e-07      1.40607e-11      1.10433e-11       25.000000       
                  1                 
  1.05000e-07      1.40578e-11      1.10449e-11       25.000000       
                  1                 
  1.05100e-07      1.40548e-11      1.10465e-11       25.000000       
                  1                 
  1.05200e-07      1.40520e-11      1.10481e-11       25.000000       
                  1                 
  1.05300e-07      1.40491e-11      1.10496e-11       25.000000       
                  1                 
  1.05400e-07      1.40462e-11      1.10512e-11       25.000000       
                  1                 
  1.05500e-07      1.40433e-11      1.10528e-11       25.000000       
                  1                 
  1.05600e-07      1.40405e-11      1.10544e-11       25.000000       
                  1                 
  1.05700e-07      1.40376e-11      1.10560e-11       25.000000       
                  1                 
  1.05800e-07      1.40348e-11      1.10576e-11       25.000000       
                  1                 
  1.05900e-07      1.40319e-11      1.10593e-11       25.000000       
                  1                 
  1.06000e-07      1.40291e-11      1.10609e-11       25.000000       
                  1                 
  1.06100e-07      1.40263e-11      1.10625e-11       25.000000       
                  1                 
  1.06200e-07      1.40235e-11      1.10641e-11       25.000000       
                  1                 
  1.06300e-07      1.40206e-11      1.10481e-11       25.000000       
                  1                 
  1.06400e-07      1.40178e-11      1.10498e-11       25.000000       
                  1                 
  1.06500e-07      1.40151e-11      1.10515e-11       25.000000       
                  1                 
  1.06600e-07      1.40123e-11      1.10532e-11       25.000000       
                  1                 
  1.06700e-07      1.40095e-11      1.10597e-11       25.000000       
                  1                 
  1.06800e-07      1.40067e-11      1.10614e-11       25.000000       
                  1                 
  1.06900e-07      1.40040e-11      1.10631e-11       25.000000       
                  1                 
  1.07000e-07      1.40050e-11      1.10607e-11       25.000000       
                  1                 
  1.07100e-07      1.40023e-11      1.10626e-11       25.000000       
                  1                 
  1.07200e-07      1.39996e-11      1.10644e-11       25.000000       
                  1                 
  1.07300e-07      1.39965e-11      1.10663e-11       25.000000       
                  1                 
  1.07400e-07      1.39935e-11      1.10681e-11       25.000000       
                  1                 
  1.07500e-07      1.39905e-11      1.10700e-11       25.000000       
                  1                 
  1.07600e-07      1.39875e-11      1.10719e-11       25.000000       
                  1                 
  1.07700e-07      1.39845e-11      1.10737e-11       25.000000       
                  1                 
  1.07800e-07      1.39815e-11      1.10756e-11       25.000000       
                  1                 
  1.07900e-07      1.39785e-11      1.10775e-11       25.000000       
                  1                 
  1.08000e-07      1.39755e-11      1.10794e-11       25.000000       
                  1                 
  1.08100e-07      1.39726e-11      1.10812e-11       25.000000       
                  1                 
  1.08200e-07      1.39696e-11      1.10831e-11       25.000000       
                  1                 
  1.08300e-07      1.39667e-11      1.10850e-11       25.000000       
                  1                 
  1.08400e-07      1.39637e-11      1.10869e-11       25.000000       
                  1                 
  1.08500e-07      1.39608e-11      1.10888e-11       25.000000       
                  1                 
  1.08600e-07      1.39579e-11      1.10907e-11       25.000000       
                  1                 
  1.08700e-07      1.39550e-11      1.10926e-11       25.000000       
                  1                 
  1.08800e-07      1.39521e-11      1.10946e-11       25.000000       
                  1                 
  1.08900e-07      1.39492e-11      1.10965e-11       25.000000       
                  1                 
  1.09000e-07      1.39463e-11      1.10984e-11       25.000000       
                  1                 
  1.09100e-07      1.39434e-11      1.11003e-11       25.000000       
                  1                 
  1.09200e-07      1.39406e-11      1.11022e-11       25.000000       
                  1                 
  1.09300e-07      1.39377e-11      1.11048e-11       25.000000       
                  1                 
  1.09400e-07      1.39348e-11      1.11068e-11       25.000000       
                  1                 
  1.09500e-07      1.39320e-11      1.11088e-11       25.000000       
                  1                 
  1.09600e-07      1.39292e-11      1.11107e-11       25.000000       
                  1                 
  1.09700e-07      1.39263e-11      1.11127e-11       25.000000       
                  1                 
  1.09800e-07      1.39235e-11      1.11147e-11       25.000000       
                  1                 
  1.09900e-07      1.39207e-11      1.11167e-11       25.000000       
                  1                 
  1.10000e-07      1.39179e-11      1.11187e-11       25.000000       
                  1                 
  1.10100e-07      1.39151e-11      1.11207e-11       25.000000       
                  1                 
  1.10200e-07      1.39123e-11      1.11227e-11       25.000000       
                  1                 
  1.10300e-07      1.39096e-11      1.11247e-11       25.000000       
                  1                 
  1.10400e-07      1.39068e-11      1.11267e-11       25.000000       
                  1                 
  1.10500e-07      1.39040e-11      1.11287e-11       25.000000       
                  1                 
  1.10600e-07      1.39013e-11      1.11307e-11       25.000000       
                  1                 
  1.10700e-07      1.38985e-11      1.11327e-11       25.000000       
                  1                 
  1.10800e-07      1.38958e-11      1.11347e-11       25.000000       
                  1                 
  1.10900e-07      1.38931e-11      1.11367e-11       25.000000       
                  1                 
  1.11000e-07      1.38903e-11      1.11388e-11       25.000000       
                  1                 
  1.11100e-07      1.38876e-11      1.11408e-11       25.000000       
                  1                 
  1.11200e-07      1.38849e-11      1.11428e-11       25.000000       
                  1                 
  1.11300e-07      1.38822e-11      1.11449e-11       25.000000       
                  1                 
  1.11400e-07      1.38795e-11      1.11469e-11       25.000000       
                  1                 
  1.11500e-07      1.38769e-11      1.11490e-11       25.000000       
                  1                 
  1.11600e-07      1.38742e-11      1.11510e-11       25.000000       
                  1                 
  1.11700e-07      1.38715e-11      1.11531e-11       25.000000       
                  1                 
  1.11800e-07      1.38689e-11      1.11551e-11       25.000000       
                  1                 
  1.11900e-07      1.38662e-11      1.11572e-11       25.000000       
                  1                 
  1.12000e-07      1.38637e-11      1.11594e-11       25.000000       
                  1                 
  1.12100e-07      1.38611e-11      1.11615e-11       25.000000       
                  1                 
  1.12200e-07      1.38586e-11      1.11637e-11       25.000000       
                  1                 
  1.12300e-07      1.38560e-11      1.11659e-11       25.000000       
                  1                 
  1.12400e-07      1.38535e-11      1.11681e-11       25.000000       
                  1                 
  1.12500e-07      1.38509e-11      1.11703e-11       25.000000       
                  1                 
  1.12600e-07      1.38484e-11      1.11725e-11       25.000000       
                  1                 
  1.12700e-07      1.38459e-11      1.11747e-11       25.000000       
                  1                 
  1.12800e-07      1.38433e-11      1.11769e-11       25.000000       
                  1                 
  1.12900e-07      1.38408e-11      1.11792e-11       25.000000       
                  1                 
  1.13000e-07      1.38383e-11      1.11814e-11       25.000000       
                  1                 
  1.13100e-07      1.38358e-11      1.11836e-11       25.000000       
                  1                 
  1.13200e-07      1.38333e-11      1.11860e-11       25.000000       
                  1                 
  1.13300e-07      1.38309e-11      1.11882e-11       25.000000       
                  1                 
  1.13400e-07      1.38284e-11      1.11905e-11       25.000000       
                  1                 
  1.13500e-07      1.38259e-11      1.11903e-11       25.000000       
                  1                 
  1.13600e-07      1.38234e-11      1.11926e-11       25.000000       
                  1                 
  1.13700e-07      1.38210e-11      1.11948e-11       25.000000       
                  1                 
  1.13800e-07      1.38185e-11      1.11971e-11       25.000000       
                  1                 
  1.13900e-07      1.38161e-11      1.11993e-11       25.000000       
                  1                 
  1.14000e-07      1.38136e-11      1.12016e-11       25.000000       
                  1                 
  1.14100e-07      1.38112e-11      1.12038e-11       25.000000       
                  1                 
  1.14200e-07      1.38088e-11      1.12061e-11       25.000000       
                  1                 
  1.14300e-07      1.38064e-11      1.12084e-11       25.000000       
                  1                 
  1.14400e-07      1.38040e-11      1.12106e-11       25.000000       
                  1                 
  1.14500e-07      1.38015e-11      1.12129e-11       25.000000       
                  1                 
  1.14600e-07      1.37991e-11      1.12152e-11       25.000000       
                  1                 
  1.14700e-07      1.37968e-11      1.12174e-11       25.000000       
                  1                 
  1.14800e-07      1.37944e-11      1.12197e-11       25.000000       
                  1                 
  1.14900e-07      1.37920e-11      1.12220e-11       25.000000       
                  1                 
  1.15000e-07      1.37896e-11      1.12236e-11       25.000000       
                  1                 
  1.15100e-07      1.37872e-11      1.12252e-11       25.000000       
                  1                 
  1.15200e-07      1.37849e-11      1.12267e-11       25.000000       
                  1                 
  1.15300e-07      1.37825e-11      1.12283e-11       25.000000       
                  1                 
  1.15400e-07      1.37802e-11      1.12300e-11       25.000000       
                  1                 
  1.15500e-07      1.37778e-11      1.12316e-11       25.000000       
                  1                 
  1.15600e-07      1.37755e-11      1.12333e-11       25.000000       
                  1                 
  1.15700e-07      1.37732e-11      1.12350e-11       25.000000       
                  1                 
  1.15800e-07      1.37708e-11      1.12366e-11       25.000000       
                  1                 
  1.15900e-07      1.37685e-11      1.12383e-11       25.000000       
                  1                 
  1.16000e-07      1.37662e-11      1.12400e-11       25.000000       
                  1                 
  1.16100e-07      1.37639e-11      1.12417e-11       25.000000       
                  1                 
  1.16200e-07      1.37616e-11      1.12434e-11       25.000000       
                  1                 
  1.16300e-07      1.37593e-11      1.12450e-11       25.000000       
                  1                 
  1.16400e-07      1.37570e-11      1.12467e-11       25.000000       
                  1                 
  1.16500e-07      1.37580e-11      1.12538e-11       25.000000       
                  1                 
  1.16600e-07      1.37556e-11      1.12557e-11       25.000000       
                  1                 
  1.16700e-07      1.37533e-11      1.12575e-11       25.000000       
                  1                 
  1.16800e-07      1.37510e-11      1.12594e-11       25.000000       
                  1                 
  1.16900e-07      1.37487e-11      1.12612e-11       25.000000       
                  1                 
  1.17000e-07      1.37464e-11      1.12631e-11       25.000000       
                  1                 
  1.17100e-07      1.37442e-11      1.12649e-11       25.000000       
                  1                 
  1.17200e-07      1.37419e-11      1.12668e-11       25.000000       
                  1                 
  1.17300e-07      1.37396e-11      1.12687e-11       25.000000       
                  1                 
  1.17400e-07      1.37373e-11      1.12706e-11       25.000000       
                  1                 
  1.17500e-07      1.37351e-11      1.12725e-11       25.000000       
                  1                 
  1.17600e-07      1.37328e-11      1.12744e-11       25.000000       
                  1                 
  1.17700e-07      1.37306e-11      1.12763e-11       25.000000       
                  1                 
  1.17800e-07      1.37283e-11      1.12782e-11       25.000000       
                  1                 
  1.17900e-07      1.37261e-11      1.12802e-11       25.000000       
                  1                 
  1.18000e-07      1.37239e-11      1.12821e-11       25.000000       
                  1                 
  1.18100e-07      1.37216e-11      1.12840e-11       25.000000       
                  1                 
  1.18200e-07      1.37194e-11      1.12860e-11       25.000000       
                  1                 
  1.18300e-07      1.37172e-11      1.12879e-11       25.000000       
                  1                 
  1.18400e-07      1.37150e-11      1.12899e-11       25.000000       
                  1                 
  1.18500e-07      1.37128e-11      1.12918e-11       25.000000       
                  1                 
  1.18600e-07      1.37106e-11      1.12809e-11       25.000000       
                  1                 
  1.18700e-07      1.37084e-11      1.12829e-11       25.000000       
                  1                 
  1.18800e-07      1.37063e-11      1.12849e-11       25.000000       
                  1                 
  1.18900e-07      1.37041e-11      1.12869e-11       25.000000       
                  1                 
  1.19000e-07      1.37019e-11      1.12889e-11       25.000000       
                  1                 
  1.19100e-07      1.36998e-11      1.12908e-11       25.000000       
                  1                 
  1.19200e-07      1.36976e-11      1.12950e-11       25.000000       
                  1                 
  1.19300e-07      1.36955e-11      1.12957e-11       25.000000       
                  1                 
  1.19400e-07      1.36933e-11      1.13245e-11       25.000000       
                  1                 
  1.19500e-07      1.36912e-11      1.13272e-11       25.000000       
                  1                 
  1.19600e-07      1.36890e-11      1.13299e-11       25.000000       
                  1                 
  1.19700e-07      1.36869e-11      1.13327e-11       25.000000       
                  1                 
  1.19800e-07      1.36848e-11      1.13356e-11       25.000000       
                  1                 
  1.19900e-07      1.36827e-11      1.13191e-11       25.000000       
                  1                 
  1.20000e-07      1.36806e-11      1.13215e-11       25.000000       
                  1                 
  1.20100e-07      1.36785e-11      1.13246e-11       25.000000       
                  1                 
  1.20200e-07      1.36764e-11      1.13415e-11       25.000000       
                  1                 
  1.20300e-07      1.36743e-11      1.13452e-11       25.000000       
                  1                 
  1.20400e-07      1.36722e-11      1.13491e-11       25.000000       
                  1                 
  1.20500e-07      1.36701e-11      1.13531e-11       25.000000       
                  1                 
  1.20600e-07      1.36681e-11      1.13544e-11       25.000000       
                  1                 
  1.20700e-07      1.36660e-11      1.13533e-11       25.000000       
                  1                 
  1.20800e-07      1.36639e-11      1.13522e-11       25.000000       
                  1                 
  1.20900e-07      1.36619e-11      1.13510e-11       25.000000       
                  1                 
  1.21000e-07      1.36598e-11      1.13496e-11       25.000000       
                  1                 
  1.21100e-07      1.36578e-11      1.13338e-11       25.000000       
                  1                 
  1.21200e-07      1.36557e-11      1.13301e-11       25.000000       
                  1                 
  1.21300e-07      1.36537e-11      1.13180e-11       25.000000       
                  1                 
  1.21400e-07      1.36517e-11      1.13330e-11       25.000000       
                  1                 
  1.21500e-07      1.36497e-11      1.13348e-11       25.000000       
                  1                 
  1.21600e-07      1.36476e-11      1.13370e-11       25.000000       
                  1                 
  1.21700e-07      1.36456e-11      1.13394e-11       25.000000       
                  1                 
  1.21800e-07      1.36436e-11      1.13420e-11       25.000000       
                  1                 
  1.21900e-07      1.36416e-11      1.13444e-11       25.000000       
                  1                 
  1.22000e-07      1.36396e-11      1.13470e-11       25.000000       
                  1                 
  1.22100e-07      1.36376e-11      1.13497e-11       25.000000       
                  1                 
  1.22200e-07      1.36357e-11      1.13526e-11       25.000000       
                  1                 
  1.22300e-07      1.36337e-11      1.13555e-11       25.000000       
                  1                 
  1.22400e-07      1.36317e-11      1.13585e-11       25.000000       
                  1                 
  1.22500e-07      1.36298e-11      1.13617e-11       25.000000       
                  1                 
  1.22600e-07      1.36278e-11      1.13649e-11       25.000000       
                  1                 
  1.22700e-07      1.36258e-11      1.13681e-11       25.000000       
                  1                 
  1.22800e-07      1.36239e-11      1.13715e-11       25.000000       
                  1                 
  1.22900e-07      1.36219e-11      1.13748e-11       25.000000       
                  1                 
  1.23000e-07      1.36200e-11      1.13782e-11       25.000000       
                  1                 
  1.23100e-07      1.36181e-11      1.13817e-11       25.000000       
                  1                 
  1.23200e-07      1.36142e-11      1.13752e-11       25.000000       
                  1                 
  1.23300e-07      1.36123e-11      1.13772e-11       25.000000       
                  1                 
  1.23400e-07      1.36104e-11      1.13793e-11       25.000000       
                  1                 
  1.23500e-07      1.36085e-11      1.13813e-11       25.000000       
                  1                 
  1.23600e-07      1.36066e-11      1.13833e-11       25.000000       
                  1                 
  1.23700e-07      1.36047e-11      1.13854e-11       25.000000       
                  1                 
  1.23800e-07      1.36029e-11      1.13874e-11       25.000000       
                  1                 
  1.23900e-07      1.36010e-11      1.13894e-11       25.000000       
                  1                 
  1.24000e-07      1.35991e-11      1.13915e-11       25.000000       
                  1                 
  1.24100e-07      1.35973e-11      1.13935e-11       25.000000       
                  1                 
  1.24200e-07      1.35954e-11      1.13956e-11       25.000000       
                  1                 
  1.24300e-07      1.35935e-11      1.13976e-11       25.000000       
                  1                 
  1.24400e-07      1.35917e-11      1.13997e-11       25.000000       
                  1                 
  1.24500e-07      1.35898e-11      1.14021e-11       25.000000       
                  1                 
  1.24600e-07      1.35880e-11      1.14042e-11       25.000000       
                  1                 
  1.24700e-07      1.35862e-11      1.14062e-11       25.000000       
                  1                 
  1.24800e-07      1.35843e-11      1.14083e-11       25.000000       
                  1                 
  1.24900e-07      1.35825e-11      1.14103e-11       25.000000       
                  1                 
  1.25000e-07      1.35807e-11      1.14124e-11       25.000000       
                  1                 
  1.25100e-07      1.35789e-11      1.14145e-11       25.000000       
                  1                 
  1.25200e-07      1.35771e-11      1.14086e-11       25.000000       
                  1                 
  1.25300e-07      1.35753e-11      1.14106e-11       25.000000       
                  1                 
  1.25400e-07      1.35735e-11      1.14131e-11       25.000000       
                  1                 
  1.25500e-07      1.35717e-11      1.14159e-11       25.000000       
                  1                 
  1.25600e-07      1.35699e-11      1.14187e-11       25.000000       
                  1                 
  1.25700e-07      1.35681e-11      1.14216e-11       25.000000       
                  1                 
  1.25800e-07      1.35663e-11      1.14216e-11       25.000000       
                  1                 
  1.25900e-07      1.35646e-11      1.14245e-11       25.000000       
                  1                 
  1.26000e-07      1.35628e-11      1.14313e-11       25.000000       
                  1                 
  1.26100e-07      1.35610e-11      1.14347e-11       25.000000       
                  1                 
  1.26200e-07      1.35593e-11      1.14382e-11       25.000000       
                  1                 
  1.26300e-07      1.35575e-11      1.14419e-11       25.000000       
                  1                 
  1.26400e-07      1.35558e-11      1.14456e-11       25.000000       
                  1                 
  1.26500e-07      1.35541e-11      1.14494e-11       25.000000       
                  1                 
  1.26600e-07      1.35523e-11      1.14533e-11       25.000000       
                  1                 
  1.26700e-07      1.35506e-11      1.14572e-11       25.000000       
                  1                 
  1.26800e-07      1.35489e-11      1.14612e-11       25.000000       
                  1                 
  1.26900e-07      1.35471e-11      1.14633e-11       25.000000       
                  1                 
  1.27000e-07      1.35454e-11      1.14644e-11       25.000000       
                  1                 
  1.27100e-07      1.35437e-11      1.14656e-11       25.000000       
                  1                 
  1.27200e-07      1.35420e-11      1.14668e-11       25.000000       
                  1                 
  1.27300e-07      1.35403e-11      1.14681e-11       25.000000       
                  1                 
  1.27400e-07      1.35386e-11      1.14694e-11       25.000000       
                  1                 
  1.27500e-07      1.35369e-11      1.14707e-11       25.000000       
                  1                 
  1.27600e-07      1.35352e-11      1.14693e-11       25.000000       
                  1                 
  1.27700e-07      1.35336e-11      1.14711e-11       25.000000       
                  1                 
  1.27800e-07      1.35319e-11      1.14730e-11       25.000000       
                  1                 
  1.27900e-07      1.35302e-11      1.14748e-11       25.000000       
                  1                 
  1.28000e-07      1.35286e-11      1.14768e-11       25.000000       
                  1                 
  1.28100e-07      1.35269e-11      1.14787e-11       25.000000       
                  1                 
  1.28200e-07      1.35252e-11      1.14807e-11       25.000000       
                  1                 
  1.28300e-07      1.35236e-11      1.14827e-11       25.000000       
                  1                 
  1.28400e-07      1.35219e-11      1.14847e-11       25.000000       
                  1                 
  1.28500e-07      1.35203e-11      1.14867e-11       25.000000       
                  1                 
  1.28600e-07      1.35187e-11      1.14888e-11       25.000000       
                  1                 
  1.28700e-07      1.35170e-11      1.14909e-11       25.000000       
                  1                 
  1.28800e-07      1.35154e-11      1.14930e-11       25.000000       
                  1                 
  1.28900e-07      1.35138e-11      1.14952e-11       25.000000       
                  1                 
  1.29000e-07      1.35122e-11      1.14971e-11       25.000000       
                  1                 
  1.29100e-07      1.35106e-11      1.14992e-11       25.000000       
                  1                 
  1.29200e-07      1.35090e-11      1.15013e-11       25.000000       
                  1                 
  1.29300e-07      1.35074e-11      1.15035e-11       25.000000       
                  1                 
  1.29400e-07      1.35058e-11      1.15058e-11       25.000000       
                  1                 
  1.29500e-07      1.35042e-11      1.15081e-11       25.000000       
                  1                 
  1.29600e-07      1.35026e-11      1.15105e-11       25.000000       
                  1                 
  1.29700e-07      1.35010e-11      1.15126e-11       25.000000       
                  1                 
  1.29800e-07      1.34994e-11      1.15147e-11       25.000000       
                  1                 
  1.29900e-07      1.34978e-11      1.15168e-11       25.000000       
                  1                 
  1.30000e-07      1.34963e-11      1.15189e-11       25.000000       
                  1                 
  1.30100e-07      1.34947e-11      1.15210e-11       25.000000       
                  1                 
  1.30200e-07      1.34931e-11      1.15231e-11       25.000000       
                  1                 
  1.30300e-07      1.34916e-11      1.15252e-11       25.000000       
                  1                 
  1.30400e-07      1.34900e-11      1.15273e-11       25.000000       
                  1                 
  1.30500e-07      1.34885e-11      1.15295e-11       25.000000       
                  1                 
  1.30600e-07      1.34870e-11      1.15316e-11       25.000000       
                  1                 
  1.30700e-07      1.34854e-11      1.15337e-11       25.000000       
                  1                 
  1.30800e-07      1.34839e-11      1.15359e-11       25.000000       
                  1                 
  1.30900e-07      1.34824e-11      1.15380e-11       25.000000       
                  1                 
  1.31000e-07      1.34808e-11      1.15401e-11       25.000000       
                  1                 
  1.31100e-07      1.34793e-11      1.15423e-11       25.000000       
                  1                 
  1.31200e-07      1.34778e-11      1.15444e-11       25.000000       
                  1                 
  1.31300e-07      1.34763e-11      1.15466e-11       25.000000       
                  1                 
  1.31400e-07      1.34748e-11      1.15487e-11       25.000000       
                  1                 
  1.31500e-07      1.34733e-11      1.15509e-11       25.000000       
                  1                 
  1.31600e-07      1.34718e-11      1.15531e-11       25.000000       
                  1                 
  1.31700e-07      1.34703e-11      1.15552e-11       25.000000       
                  1                 
  1.31800e-07      1.34688e-11      1.15574e-11       25.000000       
                  1                 
  1.31900e-07      1.34673e-11      1.15596e-11       25.000000       
                  1                 
  1.32000e-07      1.34658e-11      1.15617e-11       25.000000       
                  1                 
  1.32100e-07      1.34644e-11      1.15639e-11       25.000000       
                  1                 
  1.32200e-07      1.34629e-11      1.15661e-11       25.000000       
                  1                 
  1.32300e-07      1.34614e-11      1.15683e-11       25.000000       
                  1                 
  1.32400e-07      1.34600e-11      1.15705e-11       25.000000       
                  1                 
  1.32500e-07      1.34585e-11      1.15727e-11       25.000000       
                  1                 
  1.32600e-07      1.34571e-11      1.15749e-11       25.000000       
                  1                 
  1.32700e-07      1.34556e-11      1.15770e-11       25.000000       
                  1                 
  1.32800e-07      1.34542e-11      1.15792e-11       25.000000       
                  1                 
  1.32900e-07      1.34527e-11      1.15814e-11       25.000000       
                  1                 
  1.33000e-07      1.34513e-11      1.15836e-11       25.000000       
                  1                 
  1.33100e-07      1.34499e-11      1.15858e-11       25.000000       
                  1                 
  1.33200e-07      1.34485e-11      1.15881e-11       25.000000       
                  1                 
  1.33300e-07      1.34470e-11      1.15903e-11       25.000000       
                  1                 
  1.33400e-07      1.34456e-11      1.15925e-11       25.000000       
                  1                 
  1.33500e-07      1.34442e-11      1.15947e-11       25.000000       
                  1                 
  1.33600e-07      1.34428e-11      1.15969e-11       25.000000       
                  1                 
  1.33700e-07      1.34414e-11      1.15991e-11       25.000000       
                  1                 
  1.33800e-07      1.34400e-11      1.16013e-11       25.000000       
                  1                 
  1.33900e-07      1.34386e-11      1.16036e-11       25.000000       
                  1                 
  1.34000e-07      1.34372e-11      1.16058e-11       25.000000       
                  1                 
  1.34100e-07      1.34358e-11      1.16080e-11       25.000000       
                  1                 
  1.34200e-07      1.34344e-11      1.16102e-11       25.000000       
                  1                 
  1.34300e-07      1.34330e-11      1.16125e-11       25.000000       
                  1                 
  1.34400e-07      1.34317e-11      1.16147e-11       25.000000       
                  1                 
  1.34500e-07      1.34303e-11      1.16170e-11       25.000000       
                  1                 
  1.34600e-07      1.34289e-11      1.16192e-11       25.000000       
                  1                 
  1.34700e-07      1.34276e-11      1.16214e-11       25.000000       
                  1                 
  1.34800e-07      1.34262e-11      1.16237e-11       25.000000       
                  1                 
  1.34900e-07      1.34248e-11      1.16399e-11       25.000000       
                  1                 
  1.35000e-07      1.34235e-11      1.16421e-11       25.000000       
                  1                 
  1.35100e-07      1.34221e-11      1.16442e-11       25.000000       
                  1                 
  1.35200e-07      1.34208e-11      1.16464e-11       25.000000       
                  1                 
  1.35300e-07      1.34194e-11      1.16486e-11       25.000000       
                  1                 
  1.35400e-07      1.34181e-11      1.16507e-11       25.000000       
                  1                 
  1.35500e-07      1.34168e-11      1.16529e-11       25.000000       
                  1                 
  1.35600e-07      1.34155e-11      1.16551e-11       25.000000       
                  1                 
  1.35700e-07      1.34141e-11      1.16573e-11       25.000000       
                  1                 
  1.35800e-07      1.34128e-11      1.16595e-11       25.000000       
                  1                 
  1.35900e-07      1.34115e-11      1.16616e-11       25.000000       
                  1                 
  1.36000e-07      1.34102e-11      1.16640e-11       25.000000       
                  1                 
  1.36100e-07      1.34089e-11      1.16662e-11       25.000000       
                  1                 
  1.36200e-07      1.34076e-11      1.16684e-11       25.000000       
                  1                 
  1.36300e-07      1.34063e-11      1.16706e-11       25.000000       
                  1                 
  1.36400e-07      1.34050e-11      1.16728e-11       25.000000       
                  1                 
  1.36500e-07      1.34037e-11      1.16750e-11       25.000000       
                  1                 
  1.36600e-07      1.34024e-11      1.16773e-11       25.000000       
                  1                 
  1.36700e-07      1.34011e-11      1.16795e-11       25.000000       
                  1                 
  1.36800e-07      1.33998e-11      1.16817e-11       25.000000       
                  1                 
  1.36900e-07      1.33985e-11      1.16839e-11       25.000000       
                  1                 
  1.37000e-07      1.33973e-11      1.16861e-11       25.000000       
                  1                 
  1.37100e-07      1.33960e-11      1.16884e-11       25.000000       
                  1                 
  1.37200e-07      1.33947e-11      1.16906e-11       25.000000       
                  1                 
  1.37300e-07      1.33935e-11      1.16929e-11       25.000000       
                  1                 
  1.37400e-07      1.33922e-11      1.16951e-11       25.000000       
                  1                 
  1.37500e-07      1.33910e-11      1.16973e-11       25.000000       
                  1                 
  1.37600e-07      1.33897e-11      1.16996e-11       25.000000       
                  1                 
  1.37700e-07      1.33885e-11      1.17018e-11       25.000000       
                  1                 
  1.37800e-07      1.33872e-11      1.17040e-11       25.000000       
                  1                 
  1.37900e-07      1.33860e-11      1.17063e-11       25.000000       
                  1                 
  1.38000e-07      1.33848e-11      1.17085e-11       25.000000       
                  1                 
  1.38100e-07      1.33835e-11      1.17108e-11       25.000000       
                  1                 
  1.38200e-07      1.33823e-11      1.17130e-11       25.000000       
                  1                 
  1.38300e-07      1.33811e-11      1.17153e-11       25.000000       
                  1                 
  1.38400e-07      1.33799e-11      1.17175e-11       25.000000       
                  1                 
  1.38500e-07      1.33787e-11      1.17198e-11       25.000000       
                  1                 
  1.38600e-07      1.33775e-11      1.17221e-11       25.000000       
                  1                 
  1.38700e-07      1.33762e-11      1.17244e-11       25.000000       
                  1                 
  1.38800e-07      1.33750e-11      1.17266e-11       25.000000       
                  1                 
  1.38900e-07      1.33738e-11      1.17289e-11       25.000000       
                  1                 
  1.39000e-07      1.33726e-11      1.17312e-11       25.000000       
                  1                 
  1.39100e-07      1.33715e-11      1.17335e-11       25.000000       
                  1                 
  1.39200e-07      1.33703e-11      1.17358e-11       25.000000       
                  1                 
  1.39300e-07      1.33691e-11      1.17381e-11       25.000000       
                  1                 
  1.39400e-07      1.33679e-11      1.17404e-11       25.000000       
                  1                 
  1.39500e-07      1.33667e-11      1.17427e-11       25.000000       
                  1                 
  1.39600e-07      1.33656e-11      1.17450e-11       25.000000       
                  1                 
  1.39700e-07      1.33644e-11      1.17301e-11       25.000000       
                  1                 
  1.39800e-07      1.33632e-11      1.17321e-11       25.000000       
                  1                 
  1.39900e-07      1.33621e-11      1.17342e-11       25.000000       
                  1                 
  1.40000e-07      1.33609e-11      1.17363e-11       25.000000       
                  1                 
  1.40100e-07      1.33597e-11      1.17384e-11       25.000000       
                  1                 
  1.40200e-07      1.33586e-11      1.17405e-11       25.000000       
                  1                 
  1.40300e-07      1.33574e-11      1.17427e-11       25.000000       
                  1                 
  1.40400e-07      1.33563e-11      1.17449e-11       25.000000       
                  1                 
  1.40500e-07      1.33552e-11      1.17471e-11       25.000000       
                  1                 
  1.40600e-07      1.33540e-11      1.17492e-11       25.000000       
                  1                 
  1.40700e-07      1.33529e-11      1.17514e-11       25.000000       
                  1                 
  1.40800e-07      1.33518e-11      1.17536e-11       25.000000       
                  1                 
  1.40900e-07      1.33506e-11      1.17558e-11       25.000000       
                  1                 
  1.41000e-07      1.33495e-11      1.17581e-11       25.000000       
                  1                 
  1.41100e-07      1.33484e-11      1.17604e-11       25.000000       
                  1                 
  1.41200e-07      1.33473e-11      1.17627e-11       25.000000       
                  1                 
  1.41300e-07      1.33462e-11      1.17651e-11       25.000000       
                  1                 
  1.41400e-07      1.33451e-11      1.17675e-11       25.000000       
                  1                 
  1.41500e-07      1.33440e-11      1.17699e-11       25.000000       
                  1                 
  1.41600e-07      1.33429e-11      1.17902e-11       25.000000       
                  1                 
  1.41700e-07      1.33418e-11      1.17922e-11       25.000000       
                  1                 
  1.41800e-07      1.33407e-11      1.17944e-11       25.000000       
                  1                 
  1.41900e-07      1.33396e-11      1.17968e-11       25.000000       
                  1                 
  1.42000e-07      1.33385e-11      1.17993e-11       25.000000       
                  1                 
  1.42100e-07      1.33374e-11      1.18020e-11       25.000000       
                  1                 
  1.42200e-07      1.33363e-11      1.18046e-11       25.000000       
                  1                 
  1.42300e-07      1.33353e-11      1.18074e-11       25.000000       
                  1                 
  1.42400e-07      1.33342e-11      1.18101e-11       25.000000       
                  1                 
  1.42500e-07      1.33331e-11      1.18130e-11       25.000000       
                  1                 
  1.42600e-07      1.33320e-11      1.18158e-11       25.000000       
                  1                 
  1.42700e-07      1.33310e-11      1.18188e-11       25.000000       
                  1                 
  1.42800e-07      1.33299e-11      1.18217e-11       25.000000       
                  1                 
  1.42900e-07      1.33289e-11      1.18247e-11       25.000000       
                  1                 
  1.43000e-07      1.33278e-11      1.18274e-11       25.000000       
                  1                 
  1.43100e-07      1.33268e-11      1.18301e-11       25.000000       
                  1                 
  1.43200e-07      1.33257e-11      1.18326e-11       25.000000       
                  1                 
  1.43300e-07      1.33247e-11      1.18344e-11       25.000000       
                  1                 
  1.43400e-07      1.33236e-11      1.18363e-11       25.000000       
                  1                 
  1.43500e-07      1.33226e-11      1.18382e-11       25.000000       
                  1                 
  1.43600e-07      1.33216e-11      1.18401e-11       25.000000       
                  1                 
  1.43700e-07      1.33205e-11      1.18419e-11       25.000000       
                  1                 
  1.43800e-07      1.33195e-11      1.18438e-11       25.000000       
                  1                 
  1.43900e-07      1.33185e-11      1.18457e-11       25.000000       
                  1                 
  1.44000e-07      1.33175e-11      1.18476e-11       25.000000       
                  1                 
  1.44100e-07      1.33164e-11      1.18495e-11       25.000000       
                  1                 
  1.44200e-07      1.33152e-11      1.18514e-11       25.000000       
                  1                 
  1.44300e-07      1.33140e-11      1.18533e-11       25.000000       
                  1                 
  1.44400e-07      1.33128e-11      1.18553e-11       25.000000       
                  1                 
  1.44500e-07      1.33116e-11      1.18572e-11       25.000000       
                  1                 
  1.44600e-07      1.33105e-11      1.18744e-11       25.000000       
                  1                 
  1.44700e-07      1.33093e-11      1.18766e-11       25.000000       
                  1                 
  1.44800e-07      1.33082e-11      1.18788e-11       25.000000       
                  1                 
  1.44900e-07      1.33070e-11      1.18670e-11       25.000000       
                  1                 
  1.45000e-07      1.33058e-11      1.18832e-11       25.000000       
                  1                 
  1.45100e-07      1.33047e-11      1.18854e-11       25.000000       
                  1                 
  1.45200e-07      1.33035e-11      1.18876e-11       25.000000       
                  1                 
  1.45300e-07      1.33023e-11      1.18898e-11       25.000000       
                  1                 
  1.45400e-07      1.33012e-11      1.18921e-11       25.000000       
                  1                 
  1.45500e-07      1.33000e-11      1.18943e-11       25.000000       
                  1                 
  1.45600e-07      1.32989e-11      1.18965e-11       25.000000       
                  1                 
  1.45700e-07      1.32977e-11      1.18988e-11       25.000000       
                  1                 
  1.45800e-07      1.32966e-11      1.19010e-11       25.000000       
                  1                 
  1.45900e-07      1.32954e-11      1.19033e-11       25.000000       
                  1                 
  1.46000e-07      1.32943e-11      1.19055e-11       25.000000       
                  1                 
  1.46100e-07      1.32931e-11      1.19078e-11       25.000000       
                  1                 
  1.46200e-07      1.32920e-11      1.19100e-11       25.000000       
                  1                 
  1.46300e-07      1.32909e-11      1.19123e-11       25.000000       
                  1                 
  1.46400e-07      1.32897e-11      1.19146e-11       25.000000       
                  1                 
  1.46500e-07      1.32886e-11      1.19168e-11       25.000000       
                  1                 
  1.46600e-07      1.32875e-11      1.19191e-11       25.000000       
                  1                 
  1.46700e-07      1.32864e-11      1.19214e-11       25.000000       
                  1                 
  1.46800e-07      1.32853e-11      1.19236e-11       25.000000       
                  1                 
  1.46900e-07      1.32841e-11      1.19259e-11       25.000000       
                  1                 
  1.47000e-07      1.32830e-11      1.19282e-11       25.000000       
                  1                 
  1.47100e-07      1.32819e-11      1.19305e-11       25.000000       
                  1                 
  1.47200e-07      1.32808e-11      1.19328e-11       25.000000       
                  1                 
  1.47300e-07      1.32797e-11      1.19351e-11       25.000000       
                  1                 
  1.47400e-07      1.32786e-11      1.19374e-11       25.000000       
                  1                 
  1.47500e-07      1.32775e-11      1.19397e-11       25.000000       
                  1                 
  1.47600e-07      1.32764e-11      1.19420e-11       25.000000       
                  1                 
  1.47700e-07      1.32753e-11      1.19443e-11       25.000000       
                  1                 
  1.47800e-07      1.32742e-11      1.19466e-11       25.000000       
                  1                 
  1.47900e-07      1.32732e-11      1.19489e-11       25.000000       
                  1                 
  1.48000e-07      1.32721e-11      1.19512e-11       25.000000       
                  1                 
  1.48100e-07      1.32710e-11      1.19535e-11       25.000000       
                  1                 
  1.48200e-07      1.32699e-11      1.19558e-11       25.000000       
                  1                 
  1.48300e-07      1.32688e-11      1.19581e-11       25.000000       
                  1                 
  1.48400e-07      1.32678e-11      1.19605e-11       25.000000       
                  1                 
  1.48500e-07      1.32667e-11      1.19628e-11       25.000000       
                  1                 
  1.48600e-07      1.32656e-11      1.19651e-11       25.000000       
                  1                 
  1.48700e-07      1.32646e-11      1.19674e-11       25.000000       
                  1                 
  1.48800e-07      1.32635e-11      1.19698e-11       25.000000       
                  1                 
  1.48900e-07      1.32625e-11      1.19721e-11       25.000000       
                  1                 
  1.49000e-07      1.32614e-11      1.19744e-11       25.000000       
                  1                 
  1.49100e-07      1.32604e-11      1.19768e-11       25.000000       
                  1                 
  1.49200e-07      1.32593e-11      1.19791e-11       25.000000       
                  1                 
  1.49300e-07      1.32583e-11      1.19815e-11       25.000000       
                  1                 
  1.49400e-07      1.32572e-11      1.19838e-11       25.000000       
                  1                 
  1.49500e-07      1.32562e-11      1.19862e-11       25.000000       
                  1                 
  1.49600e-07      1.32552e-11      1.19885e-11       25.000000       
                  1                 
  1.49700e-07      1.32541e-11      1.19909e-11       25.000000       
                  1                 
  1.49800e-07      1.32531e-11      1.19937e-11       25.000000       
                  1                 
  1.49900e-07      1.32521e-11      1.19961e-11       25.000000       
                  1                 
  1.50000e-07      1.32511e-11      1.19984e-11       25.000000       
                  1                 
  1.50100e-07      1.32500e-11      1.20007e-11       25.000000       
                  1                 
  1.50200e-07      1.32490e-11      1.20031e-11       25.000000       
                  1                 
  1.50300e-07      1.32480e-11      1.20054e-11       25.000000       
                  1                 
  1.50400e-07      1.32470e-11      1.20078e-11       25.000000       
                  1                 
  1.50500e-07      1.32460e-11      1.20102e-11       25.000000       
                  1                 
  1.50600e-07      1.32450e-11      1.20125e-11       25.000000       
                  1                 
  1.50700e-07      1.32440e-11      1.20149e-11       25.000000       
                  1                 
  1.50800e-07      1.32430e-11      1.20172e-11       25.000000       
                  1                 
  1.50900e-07      1.32420e-11      1.20196e-11       25.000000       
                  1                 
  1.51000e-07      1.32410e-11      1.20220e-11       25.000000       
                  1                 
  1.51100e-07      1.32401e-11      1.20243e-11       25.000000       
                  1                 
  1.51200e-07      1.32391e-11      1.20267e-11       25.000000       
                  1                 
  1.51300e-07      1.32381e-11      1.20291e-11       25.000000       
                  1                 
  1.51400e-07      1.32371e-11      1.20315e-11       25.000000       
                  1                 
  1.51500e-07      1.32361e-11      1.20337e-11       25.000000       
                  1                 
  1.51600e-07      1.32352e-11      1.20361e-11       25.000000       
                  1                 
  1.51700e-07      1.32342e-11      1.20385e-11       25.000000       
                  1                 
  1.51800e-07      1.32332e-11      1.20409e-11       25.000000       
                  1                 
  1.51900e-07      1.32323e-11      1.20433e-11       25.000000       
                  1                 
  1.52000e-07      1.32313e-11      1.20458e-11       25.000000       
                  1                 
  1.52100e-07      1.32304e-11      1.20482e-11       25.000000       
                  1                 
  1.52200e-07      1.32294e-11      1.20506e-11       25.000000       
                  1                 
  1.52300e-07      1.32285e-11      1.20530e-11       25.000000       
                  1                 
  1.52400e-07      1.32275e-11      1.20554e-11       25.000000       
                  1                 
  1.52500e-07      1.32266e-11      1.20578e-11       25.000000       
                  1                 
  1.52600e-07      1.32256e-11      1.20603e-11       25.000000       
                  1                 
  1.52700e-07      1.32247e-11      1.20627e-11       25.000000       
                  1                 
  1.52800e-07      1.32238e-11      1.20651e-11       25.000000       
                  1                 
  1.52900e-07      1.32228e-11      1.20676e-11       25.000000       
                  1                 
  1.53000e-07      1.32219e-11      1.20700e-11       25.000000       
                  1                 
  1.53100e-07      1.32210e-11      1.20724e-11       25.000000       
                  1                 
  1.53200e-07      1.32200e-11      1.20749e-11       25.000000       
                  1                 
  1.53300e-07      1.32191e-11      1.20773e-11       25.000000       
                  1                 
  1.53400e-07      1.32182e-11      1.20797e-11       25.000000       
                  1                 
  1.53500e-07      1.32173e-11      1.20822e-11       25.000000       
                  1                 
  1.53600e-07      1.32164e-11      1.20846e-11       25.000000       
                  1                 
  1.53700e-07      1.32155e-11      1.20871e-11       25.000000       
                  1                 
  1.53800e-07      1.32146e-11      1.20691e-11       25.000000       
                  1                 
  1.53900e-07      1.32137e-11      1.20715e-11       25.000000       
                  1                 
  1.54000e-07      1.32128e-11      1.20739e-11       25.000000       
                  1                 
  1.54100e-07      1.32119e-11      1.20763e-11       25.000000       
                  1                 
  1.54200e-07      1.32110e-11      1.20787e-11       25.000000       
                  1                 
  1.54300e-07      1.32102e-11      1.20812e-11       25.000000       
                  1                 
  1.54400e-07      1.32093e-11      1.20836e-11       25.000000       
                  1                 
  1.54500e-07      1.32084e-11      1.20860e-11       25.000000       
                  1                 
  1.54600e-07      1.32075e-11      1.20884e-11       25.000000       
                  1                 
  1.54700e-07      1.32066e-11      1.20908e-11       25.000000       
                  1                 
  1.54800e-07      1.32057e-11      1.20933e-11       25.000000       
                  1                 
  1.54900e-07      1.32049e-11      1.20957e-11       25.000000       
                  1                 
  1.55000e-07      1.32040e-11      1.20981e-11       25.000000       
                  1                 
  1.55100e-07      1.32031e-11      1.21005e-11       25.000000       
                  1                 
  1.55200e-07      1.32023e-11      1.21029e-11       25.000000       
                  1                 
  1.55300e-07      1.32014e-11      1.21053e-11       25.000000       
                  1                 
  1.55400e-07      1.32005e-11      1.20971e-11       25.000000       
                  1                 
  1.55500e-07      1.31997e-11      1.20994e-11       25.000000       
                  1                 
  1.55600e-07      1.31988e-11      1.21018e-11       25.000000       
                  1                 
  1.55700e-07      1.31980e-11      1.21042e-11       25.000000       
                  1                 
  1.55800e-07      1.31971e-11      1.21065e-11       25.000000       
                  1                 
  1.55900e-07      1.31963e-11      1.21089e-11       25.000000       
                  1                 
  1.56000e-07      1.31954e-11      1.21112e-11       25.000000       
                  1                 
  1.56100e-07      1.31946e-11      1.21136e-11       25.000000       
                  1                 
  1.56200e-07      1.31937e-11      1.21160e-11       25.000000       
                  1                 
  1.56300e-07      1.31929e-11      1.21183e-11       25.000000       
                  1                 
  1.56400e-07      1.31921e-11      1.21207e-11       25.000000       
                  1                 
  1.56500e-07      1.31912e-11      1.21231e-11       25.000000       
                  1                 
  1.56600e-07      1.31904e-11      1.21254e-11       25.000000       
                  1                 
  1.56700e-07      1.31896e-11      1.21278e-11       25.000000       
                  1                 
  1.56800e-07      1.31888e-11      1.21301e-11       25.000000       
                  1                 
  1.56900e-07      1.31879e-11      1.21325e-11       25.000000       
                  1                 
  1.57000e-07      1.31871e-11      1.21349e-11       25.000000       
                  1                 
  1.57100e-07      1.31863e-11      1.21372e-11       25.000000       
                  1                 
  1.57200e-07      1.31855e-11      1.21396e-11       25.000000       
                  1                 
  1.57300e-07      1.31847e-11      1.21420e-11       25.000000       
                  1                 
  1.57400e-07      1.31839e-11      1.21444e-11       25.000000       
                  1                 
  1.57500e-07      1.31831e-11      1.21468e-11       25.000000       
                  1                 
  1.57600e-07      1.31823e-11      1.21492e-11       25.000000       
                  1                 
  1.57700e-07      1.31815e-11      1.21516e-11       25.000000       
                  1                 
  1.57800e-07      1.31807e-11      1.21540e-11       25.000000       
                  1                 
  1.57900e-07      1.31799e-11      1.21564e-11       25.000000       
                  1                 
  1.58000e-07      1.31791e-11      1.21588e-11       25.000000       
                  1                 
  1.58100e-07      1.31783e-11      1.21612e-11       25.000000       
                  1                 
  1.58200e-07      1.31775e-11      1.21636e-11       25.000000       
                  1                 
  1.58300e-07      1.31767e-11      1.21660e-11       25.000000       
                  1                 
  1.58400e-07      1.31760e-11      1.21684e-11       25.000000       
                  1                 
  1.58500e-07      1.31752e-11      1.21708e-11       25.000000       
                  1                 
  1.58600e-07      1.31744e-11      1.21732e-11       25.000000       
                  1                 
  1.58700e-07      1.31736e-11      1.21756e-11       25.000000       
                  1                 
  1.58800e-07      1.31729e-11      1.21780e-11       25.000000       
                  1                 
  1.58900e-07      1.31721e-11      1.21804e-11       25.000000       
                  1                 
  1.59000e-07      1.31713e-11      1.21829e-11       25.000000       
                  1                 
  1.59100e-07      1.31706e-11      1.21853e-11       25.000000       
                  1                 
  1.59200e-07      1.31698e-11      1.21877e-11       25.000000       
                  1                 
  1.59300e-07      1.31691e-11      1.21901e-11       25.000000       
                  1                 
  1.59400e-07      1.31683e-11      1.21925e-11       25.000000       
                  1                 
  1.59500e-07      1.31675e-11      1.21950e-11       25.000000       
                  1                 
  1.59600e-07      1.31668e-11      1.21974e-11       25.000000       
                  1                 
  1.59700e-07      1.31660e-11      1.21998e-11       25.000000       
                  1                 
  1.59800e-07      1.31653e-11      1.22022e-11       25.000000       
                  1                 
  1.59900e-07      1.31646e-11      1.22046e-11       25.000000       
                  1                 
  1.60000e-07      1.31638e-11      1.22071e-11       25.000000       
                  1                 
  1.60100e-07      1.31631e-11      1.22095e-11       25.000000       
                  1                 
  1.60200e-07      1.31623e-11      1.22119e-11       25.000000       
                  1                 
  1.60300e-07      1.31616e-11      1.22246e-11       25.000000       
                  1                 
  1.60400e-07      1.31609e-11      1.22271e-11       25.000000       
                  1                 
  1.60500e-07      1.31602e-11      1.22295e-11       25.000000       
                  1                 
  1.60600e-07      1.31594e-11      1.22319e-11       25.000000       
                  1                 
  1.60700e-07      1.31587e-11      1.22343e-11       25.000000       
                  1                 
  1.60800e-07      1.31580e-11      1.22367e-11       25.000000       
                  1                 
  1.60900e-07      1.31573e-11      1.22392e-11       25.000000       
                  1                 
  1.61000e-07      1.31566e-11      1.22415e-11       25.000000       
                  1                 
  1.61100e-07      1.31558e-11      1.22440e-11       25.000000       
                  1                 
  1.61200e-07      1.31551e-11      1.22464e-11       25.000000       
                  1                 
  1.61300e-07      1.31544e-11      1.22488e-11       25.000000       
                  1                 
  1.61400e-07      1.31537e-11      1.22512e-11       25.000000       
                  1                 
  1.61500e-07      1.31530e-11      1.22537e-11       25.000000       
                  1                 
  1.61600e-07      1.31523e-11      1.22561e-11       25.000000       
                  1                 
  1.61700e-07      1.31516e-11      1.22585e-11       25.000000       
                  1                 
  1.61800e-07      1.31509e-11      1.22610e-11       25.000000       
                  1                 
  1.61900e-07      1.31502e-11      1.22634e-11       25.000000       
                  1                 
  1.62000e-07      1.31495e-11      1.22659e-11       25.000000       
                  1                 
  1.62100e-07      1.31488e-11      1.22684e-11       25.000000       
                  1                 
  1.62200e-07      1.31482e-11      1.22709e-11       25.000000       
                  1                 
  1.62300e-07      1.31475e-11      1.22733e-11       25.000000       
                  1                 
  1.62400e-07      1.31468e-11      1.22758e-11       25.000000       
                  1                 
  1.62500e-07      1.31461e-11      1.22783e-11       25.000000       
                  1                 
  1.62600e-07      1.31454e-11      1.22808e-11       25.000000       
                  1                 
  1.62700e-07      1.31448e-11      1.22833e-11       25.000000       
                  1                 
  1.62800e-07      1.31441e-11      1.22858e-11       25.000000       
                  1                 
  1.62900e-07      1.31434e-11      1.22883e-11       25.000000       
                  1                 
  1.63000e-07      1.31428e-11      1.22908e-11       25.000000       
                  1                 
  1.63100e-07      1.31421e-11      1.22933e-11       25.000000       
                  1                 
  1.63200e-07      1.31414e-11      1.22958e-11       25.000000       
                  1                 
  1.63300e-07      1.31408e-11      1.22983e-11       25.000000       
                  1                 
  1.63400e-07      1.31401e-11      1.23008e-11       25.000000       
                  1                 
  1.63500e-07      1.31394e-11      1.23035e-11       25.000000       
                  1                 
  1.63600e-07      1.31388e-11      1.23061e-11       25.000000       
                  1                 
  1.63700e-07      1.31381e-11      1.23087e-11       25.000000       
                  1                 
  1.63800e-07      1.31375e-11      1.23113e-11       25.000000       
                  1                 
  1.63900e-07      1.31368e-11      1.23139e-11       25.000000       
                  1                 
  1.64000e-07      1.31362e-11      1.23157e-11       25.000000       
                  1                 
  1.64100e-07      1.31356e-11      1.23182e-11       25.000000       
                  1                 
  1.64200e-07      1.31349e-11      1.23207e-11       25.000000       
                  1                 
  1.64300e-07      1.31343e-11      1.23232e-11       25.000000       
                  1                 
  1.64400e-07      1.31336e-11      1.23258e-11       25.000000       
                  1                 
  1.64500e-07      1.31330e-11      1.23283e-11       25.000000       
                  1                 
  1.64600e-07      1.31324e-11      1.23308e-11       25.000000       
                  1                 
  1.64700e-07      1.31317e-11      1.23333e-11       25.000000       
                  1                 
  1.64800e-07      1.31311e-11      1.23358e-11       25.000000       
                  1                 
  1.64900e-07      1.31305e-11      1.23384e-11       25.000000       
                  1                 
  1.65000e-07      1.31299e-11      1.23409e-11       25.000000       
                  1                 
  1.65100e-07      1.31293e-11      1.23434e-11       25.000000       
                  1                 
  1.65200e-07      1.31286e-11      1.23460e-11       25.000000       
                  1                 
  1.65300e-07      1.31280e-11      1.23485e-11       25.000000       
                  1                 
  1.65400e-07      1.31274e-11      1.23510e-11       25.000000       
                  1                 
  1.65500e-07      1.31268e-11      1.23536e-11       25.000000       
                  1                 
  1.65600e-07      1.31262e-11      1.23561e-11       25.000000       
                  1                 
  1.65700e-07      1.31256e-11      1.23586e-11       25.000000       
                  1                 
  1.65800e-07      1.31250e-11      1.23612e-11       25.000000       
                  1                 
  1.65900e-07      1.31244e-11      1.23637e-11       25.000000       
                  1                 
  1.66000e-07      1.31238e-11      1.23663e-11       25.000000       
                  1                 
  1.66100e-07      1.31232e-11      1.23690e-11       25.000000       
                  1                 
  1.66200e-07      1.31226e-11      1.23718e-11       25.000000       
                  1                 
  1.66300e-07      1.31220e-11      1.23747e-11       25.000000       
                  1                 
  1.66400e-07      1.31214e-11      1.23775e-11       25.000000       
                  1                 
  1.66500e-07      1.31208e-11      1.23803e-11       25.000000       
                  1                 
  1.66600e-07      1.31202e-11      1.23832e-11       25.000000       
                  1                 
  1.66700e-07      1.31196e-11      1.23861e-11       25.000000       
                  1                 
  1.66800e-07      1.31190e-11      1.23890e-11       25.000000       
                  1                 
  1.66900e-07      1.31185e-11      1.23919e-11       25.000000       
                  1                 
  1.67000e-07      1.31179e-11      1.23948e-11       25.000000       
                  1                 
  1.67100e-07      1.31173e-11      1.23977e-11       25.000000       
                  1                 
  1.67200e-07      1.31167e-11      1.24007e-11       25.000000       
                  1                 
  1.67300e-07      1.31162e-11      1.24030e-11       25.000000       
                  1                 
  1.67400e-07      1.31156e-11      1.24048e-11       25.000000       
                  1                 
  1.67500e-07      1.31150e-11      1.24066e-11       25.000000       
                  1                 
  1.67600e-07      1.31145e-11      1.24084e-11       25.000000       
                  1                 
  1.67700e-07      1.31139e-11      1.24102e-11       25.000000       
                  1                 
  1.67800e-07      1.31133e-11      1.24121e-11       25.000000       
                  1                 
  1.67900e-07      1.31128e-11      1.24139e-11       25.000000       
                  1                 
  1.68000e-07      1.31122e-11      1.24158e-11       25.000000       
                  1                 
  1.68100e-07      1.31117e-11      1.24176e-11       25.000000       
                  1                 
  1.68200e-07      1.31111e-11      1.24195e-11       25.000000       
                  1                 
  1.68300e-07      1.31105e-11      1.24214e-11       25.000000       
                  1                 
  1.68400e-07      1.31100e-11      1.24233e-11       25.000000       
                  1                 
  1.68500e-07      1.31094e-11      1.24252e-11       25.000000       
                  1                 
  1.68600e-07      1.31089e-11      1.24271e-11       25.000000       
                  1                 
  1.68700e-07      1.31084e-11      1.24290e-11       25.000000       
                  1                 
  1.68800e-07      1.31078e-11      1.24309e-11       25.000000       
                  1                 
  1.68900e-07      1.31073e-11      1.24328e-11       25.000000       
                  1                 
  1.69000e-07      1.31067e-11      1.24348e-11       25.000000       
                  1                 
  1.69100e-07      1.31062e-11      1.24367e-11       25.000000       
                  1                 
  1.69200e-07      1.31057e-11      1.24387e-11       25.000000       
                  1                 
  1.69300e-07      1.31051e-11      1.24406e-11       25.000000       
                  1                 
  1.69400e-07      1.31046e-11      1.24426e-11       25.000000       
                  1                 
  1.69500e-07      1.31041e-11      1.24445e-11       25.000000       
                  1                 
  1.69600e-07      1.31036e-11      1.24465e-11       25.000000       
                  1                 
  1.69700e-07      1.31030e-11      1.24485e-11       25.000000       
                  1                 
  1.69800e-07      1.31025e-11      1.24504e-11       25.000000       
                  1                 
  1.69900e-07      1.31020e-11      1.24524e-11       25.000000       
                  1                 
  1.70000e-07      1.31015e-11      1.24544e-11       25.000000       
                  1                 
  1.70100e-07      1.31010e-11      1.24564e-11       25.000000       
                  1                 
  1.70200e-07      1.31004e-11      1.24584e-11       25.000000       
                  1                 
  1.70300e-07      1.30999e-11      1.24604e-11       25.000000       
                  1                 
  1.70400e-07      1.30994e-11      1.24624e-11       25.000000       
                  1                 
  1.70500e-07      1.30989e-11      1.24644e-11       25.000000       
                  1                 
  1.70600e-07      1.30984e-11      1.24664e-11       25.000000       
                  1                 
  1.70700e-07      1.30979e-11      1.24684e-11       25.000000       
                  1                 
  1.70800e-07      1.30974e-11      1.24704e-11       25.000000       
                  1                 
  1.70900e-07      1.30969e-11      1.24716e-11       25.000000       
                  1                 
  1.71000e-07      1.30964e-11      1.24736e-11       25.000000       
                  1                 
  1.71100e-07      1.30959e-11      1.24756e-11       25.000000       
                  1                 
  1.71200e-07      1.30954e-11      1.24777e-11       25.000000       
                  1                 
  1.71300e-07      1.30950e-11      1.24797e-11       25.000000       
                  1                 
  1.71400e-07      1.30945e-11      1.24818e-11       25.000000       
                  1                 
  1.71500e-07      1.30940e-11      1.24838e-11       25.000000       
                  1                 
  1.71600e-07      1.30935e-11      1.24858e-11       25.000000       
                  1                 
  1.71700e-07      1.30931e-11      1.24879e-11       25.000000       
                  1                 
  1.71800e-07      1.30926e-11      1.24899e-11       25.000000       
                  1                 
  1.71900e-07      1.30922e-11      1.24920e-11       25.000000       
                  1                 
  1.72000e-07      1.30917e-11      1.24941e-11       25.000000       
                  1                 
  1.72100e-07      1.30912e-11      1.24961e-11       25.000000       
                  1                 
  1.72200e-07      1.30908e-11      1.24982e-11       25.000000       
                  1                 
  1.72300e-07      1.30903e-11      1.25002e-11       25.000000       
                  1                 
  1.72400e-07      1.30899e-11      1.25023e-11       25.000000       
                  1                 
  1.72500e-07      1.30894e-11      1.25043e-11       25.000000       
                  1                 
  1.72600e-07      1.30890e-11      1.25065e-11       25.000000       
                  1                 
  1.72700e-07      1.30885e-11      1.25087e-11       25.000000       
                  1                 
  1.72800e-07      1.30881e-11      1.25109e-11       25.000000       
                  1                 
  1.72900e-07      1.30876e-11      1.25130e-11       25.000000       
                  1                 
  1.73000e-07      1.30872e-11      1.25152e-11       25.000000       
                  1                 
  1.73100e-07      1.30867e-11      1.25173e-11       25.000000       
                  1                 
  1.73200e-07      1.30863e-11      1.25195e-11       25.000000       
                  1                 
  1.73300e-07      1.30858e-11      1.25217e-11       25.000000       
                  1                 
  1.73400e-07      1.30854e-11      1.25238e-11       25.000000       
                  1                 
  1.73500e-07      1.30850e-11      1.25260e-11       25.000000       
                  1                 
  1.73600e-07      1.30845e-11      1.25282e-11       25.000000       
                  1                 
  1.73700e-07      1.30841e-11      1.25305e-11       25.000000       
                  1                 
  1.73800e-07      1.30837e-11      1.25330e-11       25.000000       
[...]
  1.81600e-07      1.30539e-11      1.27486e-11       25.000000       
                  1                 
  1.81700e-07      1.30534e-11      1.27510e-11       25.000000       
                  1                 
  1.81800e-07      1.30528e-11      1.27534e-11       25.000000       
                  1                 
  1.81900e-07      1.30523e-11      1.27558e-11       25.000000       
                  1                 
  1.82000e-07      1.30517e-11      1.27583e-11       25.000000       
                  1                 
  1.82100e-07      1.30512e-11      1.27607e-11       25.000000       
                  1                 
  1.82200e-07      1.30507e-11      1.27631e-11       25.000000       
                  1                 
  1.82300e-07      1.30501e-11      1.27655e-11       25.000000       
                  1                 
  1.82400e-07      1.30496e-11      1.27680e-11       25.000000       
                  1                 
  1.82500e-07      1.30491e-11      1.27704e-11       25.000000       
                  1                 
  1.82600e-07      1.30486e-11      1.27728e-11       25.000000       
                  1                 
  1.82700e-07      1.30481e-11      1.27753e-11       25.000000       
                  1                 
  1.82800e-07      1.30475e-11      1.27777e-11       25.000000       
                  1                 
  1.82900e-07      1.30470e-11      1.27801e-11       25.000000       
                  1                 
  1.83000e-07      1.30465e-11      1.27826e-11       25.000000       
                  1                 
  1.83100e-07      1.30460e-11      1.27850e-11       25.000000       
                  1                 
  1.83200e-07      1.30455e-11      1.27875e-11       25.000000       
                  1                 
  1.83300e-07      1.30450e-11      1.27899e-11       25.000000       
                  1                 
  1.83400e-07      1.30445e-11      1.27923e-11       25.000000       
                  1                 
  1.83500e-07      1.30440e-11      1.27948e-11       25.000000       
                  1                 
  1.83600e-07      1.30435e-11      1.27972e-11       25.000000       
                  1                 
  1.83700e-07      1.30430e-11      1.27997e-11       25.000000       
                  1                 
  1.83800e-07      1.30425e-11      1.28021e-11       25.000000       
                  1                 
  1.83900e-07      1.30420e-11      1.28046e-11       25.000000       
                  1                 
  1.84000e-07      1.30416e-11      1.28070e-11       25.000000       
                  1                 
  1.84100e-07      1.30411e-11      1.28095e-11       25.000000       
                  1                 
  1.84200e-07      1.30406e-11      1.28119e-11       25.000000       
                  1                 
  1.84300e-07      1.30401e-11      1.28144e-11       25.000000       
                  1                 
  1.84400e-07      1.30397e-11      1.28168e-11       25.000000       
                  1                 
  1.84500e-07      1.30392e-11      1.28193e-11       25.000000       
                  1                 
  1.84600e-07      1.30387e-11      1.28218e-11       25.000000       
                  1                 
  1.84700e-07      1.30382e-11      1.28242e-11       25.000000       
                  1                 
  1.84800e-07      1.30378e-11      1.28267e-11       25.000000       
                  1                 
  1.84900e-07      1.30373e-11      1.28292e-11       25.000000       
                  1                 
  1.85000e-07      1.30369e-11      1.28316e-11       25.000000       
                  1                 
  1.85100e-07      1.30364e-11      1.28341e-11       25.000000       
                  1                 
  1.85200e-07      1.30360e-11      1.28365e-11       25.000000       
                  1                 
  1.85300e-07      1.30355e-11      1.28390e-11       25.000000       
                  1                 
  1.85400e-07      1.30351e-11      1.28415e-11       25.000000       
                  1                 
  1.85500e-07      1.30240e-11      1.28486e-11       25.000000       
                  1                 
  1.85600e-07      1.30236e-11      1.28523e-11       25.000000       
                  1                 
  1.85700e-07      1.30231e-11      1.28559e-11       25.000000       
                  1                 
  1.85800e-07      1.30226e-11      1.28584e-11       25.000000       
                  1                 
  1.85900e-07      1.30221e-11      1.28608e-11       25.000000       
                  1                 
  1.86000e-07      1.30217e-11      1.28635e-11       25.000000       
                  1                 
  1.86100e-07      1.30213e-11      1.28663e-11       25.000000       
                  1                 
  1.86200e-07      1.30209e-11      1.28691e-11       25.000000       
                  1                 
  1.86300e-07      1.30206e-11      1.28717e-11       25.000000       
                  1                 
  1.86400e-07      1.30202e-11      1.28738e-11       25.000000       
                  1                 
  1.86500e-07      1.30198e-11      1.28760e-11       25.000000       
                  1                 
  1.86600e-07      1.30194e-11      1.28782e-11       25.000000       
                  1                 
  1.86700e-07      1.30190e-11      1.28799e-11       25.000000       
                  1                 
  1.86800e-07      1.30187e-11      1.28823e-11       25.000000       
                  1                 
  1.86900e-07      1.30183e-11      1.28847e-11       25.000000       
                  1                 
  1.87000e-07      1.30179e-11      1.28871e-11       25.000000       
                  1                 
  1.87100e-07      1.30176e-11      1.28896e-11       25.000000       
                  1                 
  1.87200e-07      1.30172e-11      1.28921e-11       25.000000       
                  1                 
  1.87300e-07      1.30168e-11      1.28946e-11       25.000000       
                  1                 
  1.87400e-07      1.30165e-11      1.28972e-11       25.000000       
                  1                 
  1.87500e-07      1.30161e-11      1.28998e-11       25.000000       
                  1                 
  1.87600e-07      1.30157e-11      1.29023e-11       25.000000       
                  1                 
  1.87700e-07      1.30154e-11      1.29049e-11       25.000000       
                  1                 
  1.87800e-07      1.30150e-11      1.29075e-11       25.000000       
                  1                 
  1.87900e-07      1.30147e-11      1.29101e-11       25.000000       
                  1                 
  1.88000e-07      1.30143e-11      1.29128e-11       25.000000       
                  1                 
  1.88100e-07      1.30140e-11      1.29155e-11       25.000000       
                  1                 
  1.88200e-07      1.30136e-11      1.29183e-11       25.000000       
                  1                 
  1.88300e-07      1.30133e-11      1.29211e-11       25.000000       
                  1                 
  1.88400e-07      1.30129e-11      1.29239e-11       25.000000       
                  1                 
  1.88500e-07      1.30126e-11      1.29267e-11       25.000000       
                  1                 
  1.88600e-07      1.30122e-11      1.29295e-11       25.000000       
                  1                 
  1.88700e-07      1.30119e-11      1.29324e-11       25.000000       
                  1                 
  1.88800e-07      1.30116e-11      1.29353e-11       25.000000       
                  1                 
  1.88900e-07      1.30112e-11      1.29382e-11       25.000000       
                  1                 
  1.89000e-07      1.30109e-11      1.29411e-11       25.000000       
                  1                 
  1.89100e-07      1.30106e-11      1.29441e-11       25.000000       
                  1                 
  1.89200e-07      1.30102e-11      1.29470e-11       25.000000       
                  1                 
  1.89300e-07      1.30099e-11      1.29500e-11       25.000000       
                  1                 
  1.89400e-07      1.30096e-11      1.29529e-11       25.000000       
                  1                 
  1.89500e-07      1.30093e-11      1.29559e-11       25.000000       
                  1                 
  1.89600e-07      1.30089e-11      1.29589e-11       25.000000       
                  1                 
  1.89700e-07      1.30086e-11      1.29618e-11       25.000000       
                  1                 
  1.89800e-07      1.30083e-11      1.29643e-11       25.000000       
                  1                 
  1.89900e-07      1.30080e-11      1.29667e-11       25.000000       
                  1                 
  1.90000e-07      1.30077e-11      1.29688e-11       25.000000       
                  1                 
  1.90100e-07      1.30074e-11      1.29474e-11       25.000000       
                  1                 
  1.90200e-07      1.30071e-11      1.29517e-11       25.000000       
                  1                 
  1.90300e-07      1.30068e-11      1.29560e-11       25.000000       
                  1                 
  1.90400e-07      1.30065e-11      1.29603e-11       25.000000       
                  1                 
  1.90500e-07      1.30061e-11      1.29642e-11       25.000000       
                  1                 
  1.90600e-07      1.30058e-11      1.29681e-11       25.000000       
                  1                 
  1.90700e-07      1.30055e-11      1.29721e-11       25.000000       
                  1                 
  1.90800e-07      1.30053e-11      1.29760e-11       25.000000       
                  1                 
  1.90900e-07      1.30050e-11      1.29896e-11       25.000000       
                  1                 
  1.91000e-07      1.30047e-11      1.29930e-11       25.000000       
                  1                 
  1.91100e-07      1.30044e-11      1.29965e-11       25.000000       
                  1                 
  1.91200e-07      1.30041e-11      1.30001e-11       25.000000       
                  1                 
  1.91300e-07      1.30038e-11      1.30036e-11       25.000000       
                  1                 
  1.91400e-07      1.30035e-11      1.30072e-11       25.000000       
                  1                 
  1.91500e-07      1.30032e-11      1.30103e-11       25.000000       
                  1                 
  1.91600e-07      1.30029e-11      1.30120e-11       25.000000       
                  1                 
  1.91700e-07      1.30027e-11      1.30138e-11       25.000000       
                  1                 
  1.91800e-07      1.30024e-11      1.29979e-11       25.000000       
                  1                 
  1.91900e-07      1.30021e-11      1.30006e-11       25.000000       
                  1                 
  1.92000e-07      1.30018e-11      1.30032e-11       25.000000       
                  1                 
  1.92100e-07      1.30016e-11      1.30058e-11       25.000000       
                  1                 
  1.92200e-07      1.30013e-11      1.30084e-11       25.000000       
                  1                 
  1.92300e-07      1.30010e-11      1.30110e-11       25.000000       
                  1                 
  1.92400e-07      1.30008e-11      1.30137e-11       25.000000       
                  1                 
  1.92500e-07      1.30005e-11      1.30163e-11       25.000000       
                  1                 
  1.92600e-07      1.30002e-11      1.30189e-11       25.000000       
                  1                 
  1.92700e-07      1.30000e-11      1.30215e-11       25.000000       
                  1                 
  1.92800e-07      1.29997e-11      1.30241e-11       25.000000       
                  1                 
  1.92900e-07      1.29995e-11      1.30267e-11       25.000000       
                  1                 
  1.93000e-07      1.29992e-11      1.30294e-11       25.000000       
                  1                 
  1.93100e-07      1.29990e-11      1.30320e-11       25.000000       
                  1                 
  1.93200e-07      1.29987e-11      1.30346e-11       25.000000       
                  1                 
  1.93300e-07      1.29985e-11      1.30372e-11       25.000000       
                  1                 
  1.93400e-07      1.30038e-11      1.30398e-11       25.000000       
                  1                 
  1.93500e-07      1.30035e-11      1.30424e-11       25.000000       
                  1                 
  1.93600e-07      1.30033e-11      1.30450e-11       25.000000       
                  1                 
  1.93700e-07      1.30030e-11      1.30477e-11       25.000000       
                  1                 
  1.93800e-07      1.30027e-11      1.30497e-11       25.000000       
                  1                 
  1.93900e-07      1.30025e-11      1.30523e-11       25.000000       
                  1                 
  1.94000e-07      1.30022e-11      1.30549e-11       25.000000       
                  1                 
  1.94100e-07      1.30019e-11      1.30575e-11       25.000000       
                  1                 
  1.94200e-07      1.30017e-11      1.30602e-11       25.000000       
                  1                 
  1.94300e-07      1.30014e-11      1.30628e-11       25.000000       
                  1                 
  1.94400e-07      1.30011e-11      1.30654e-11       25.000000       
                  1                 
  1.94500e-07      1.30009e-11      1.30680e-11       25.000000       
                  1                 
  1.94600e-07      1.30006e-11      1.30706e-11       25.000000       
                  1                 
  1.94700e-07      1.30003e-11      1.30732e-11       25.000000       
                  1                 
  1.94800e-07      1.30001e-11      1.30758e-11       25.000000       
                  1                 
  1.94900e-07      1.29998e-11      1.30784e-11       25.000000       
                  1                 
  1.95000e-07      1.29995e-11      1.30810e-11       25.000000       
                  1                 
  1.95100e-07      1.29993e-11      1.30836e-11       25.000000       
                  1                 
  1.95200e-07      1.29990e-11      1.30862e-11       25.000000       
                  1                 
  1.95300e-07      1.29987e-11      1.30888e-11       25.000000       
                  1                 
  1.95400e-07      1.29985e-11      1.30914e-11       25.000000       
                  1                 
  1.95500e-07      1.29982e-11      1.30940e-11       25.000000       
                  1                 
  1.95600e-07      1.29980e-11      1.30966e-11       25.000000       
                  1                 
  1.95700e-07      1.29977e-11      1.30991e-11       25.000000       
                  1                 
  1.95800e-07      1.29974e-11      1.31017e-11       25.000000       
                  1                 
  1.95900e-07      1.29972e-11      1.31043e-11       25.000000       
                  1                 
  1.96000e-07      1.29969e-11      1.31069e-11       25.000000       
                  1                 
  1.96100e-07      1.29966e-11      1.31095e-11       25.000000       
                  1                 
  1.96200e-07      1.29964e-11      1.31121e-11       25.000000       
                  1                 
  1.96300e-07      1.29961e-11      1.31147e-11       25.000000       
                  1                 
  1.96400e-07      1.29959e-11      1.31173e-11       25.000000       
                  1                 
  1.96500e-07      1.29956e-11      1.31199e-11       25.000000       
                  1                 
  1.96600e-07      1.29953e-11      1.31225e-11       25.000000       
                  1                 
  1.96700e-07      1.29951e-11      1.31251e-11       25.000000       
                  1                 
  1.96800e-07      1.29948e-11      1.31276e-11       25.000000       
                  1                 
  1.96900e-07      1.29946e-11      1.31302e-11       25.000000       
                  1                 
  1.97000e-07      1.29943e-11      1.31328e-11       25.000000       
                  1                 
  1.97100e-07      1.29940e-11      1.31354e-11       25.000000       
                  1                 
  1.97200e-07      1.29938e-11      1.31380e-11       25.000000       
                  1                 
  1.97300e-07      1.29935e-11      1.31406e-11       25.000000       
                  1                 
  1.97400e-07      1.29933e-11      1.31015e-11       25.000000       
                  1                 
  1.97500e-07      1.29930e-11      1.31043e-11       25.000000       
                  1                 
  1.97600e-07      1.29928e-11      1.31070e-11       25.000000       
                  1                 
  1.97700e-07      1.29925e-11      1.31098e-11       25.000000       
                  1                 
  1.97800e-07      1.29922e-11      1.31126e-11       25.000000       
                  1                 
  1.97900e-07      1.29920e-11      1.31154e-11       25.000000       
                  1                 
  1.98000e-07      1.29917e-11      1.31183e-11       25.000000       
                  1                 
  1.98100e-07      1.29916e-11      1.31209e-11       25.000000       
                  1                 
  1.98200e-07      1.29915e-11      1.31235e-11       25.000000       
                  1                 
  1.98300e-07      1.29914e-11      1.31261e-11       25.000000       
                  1                 
  1.98400e-07      1.29914e-11      1.31287e-11       25.000000       
                  1                 
  1.98500e-07      1.29913e-11      1.31313e-11       25.000000       
                  1                 
  1.98600e-07      1.29912e-11      1.31936e-11       25.000000       
                  1                 
  1.98700e-07      1.29912e-11      1.31963e-11       25.000000       
                  1                 
  1.98800e-07      1.29911e-11      1.31990e-11       25.000000       
                  1                 
  1.98900e-07      1.29910e-11      1.32017e-11       25.000000       
                  1                 
  1.99000e-07      1.29910e-11      1.32044e-11       25.000000       
                  1                 
  1.99100e-07      1.29909e-11      1.32071e-11       25.000000       
                  1                 
  1.99200e-07      1.29909e-11      1.32099e-11       25.000000       
                  1                 
  1.99300e-07      1.29908e-11      1.32126e-11       25.000000       
                  1                 
  1.99400e-07      1.29908e-11      1.32153e-11       25.000000       
                  1                 
  1.99500e-07      1.29907e-11      1.32180e-11       25.000000       
                  1                 
  1.99600e-07      1.29907e-11      1.32207e-11       25.000000       
                  1                 
  1.99700e-07      1.29906e-11      1.32234e-11       25.000000       
                  1                 
  1.99800e-07      1.29906e-11      1.32261e-11       25.000000       
                  1                 
  1.99900e-07      1.29905e-11      1.32288e-11       25.000000       
                  1                 
  2.00000e-07      1.29905e-11      1.32314e-11       25.000000       
                  1                 
