$DATA1 SOURCE='HSPICE' VERSION='G-2012.06-SP1 32-BIT'
.TITLE 'connecting a dut inverter with f04 configuration'
 pmos_width_param delay_l_to_h     delay_h_to_l     temper            
                  alter#            
  1.00000e-07      1.42138e-11      1.09475e-11       25.000000       
                  1                 
  1.01000e-07      1.41809e-11      1.09694e-11       25.000000       
                  1                 
  1.02000e-07      1.41488e-11      1.09959e-11       25.000000       
                  1                 
  1.03000e-07      1.41176e-11      1.10121e-11       25.000000       
                  1                 
  1.04000e-07      1.40872e-11      1.10287e-11       25.000000       
                  1                 
  1.05000e-07      1.40578e-11      1.10449e-11       25.000000       
                  1                 
  1.06000e-07      1.40291e-11      1.10609e-11       25.000000       
                  1                 
  1.07000e-07      1.40050e-11      1.10607e-11       25.000000       
                  1                 
  1.08000e-07      1.39755e-11      1.10794e-11       25.000000       
                  1                 
  1.09000e-07      1.39463e-11      1.10984e-11       25.000000       
                  1                 
  1.10000e-07      1.39179e-11      1.11187e-11       25.000000       
                  1                 
  1.11000e-07      1.38903e-11      1.11388e-11       25.000000       
                  1                 
  1.12000e-07      1.38637e-11      1.11594e-11       25.000000       
                  1                 
  1.13000e-07      1.38383e-11      1.11814e-11       25.000000       
                  1                 
  1.14000e-07      1.38136e-11      1.12016e-11       25.000000       
                  1                 
  1.15000e-07      1.37896e-11      1.12236e-11       25.000000       
                  1                 
  1.16000e-07      1.37662e-11      1.12400e-11       25.000000       
                  1                 
  1.17000e-07      1.37464e-11      1.12631e-11       25.000000       
                  1                 
  1.18000e-07      1.37239e-11      1.12821e-11       25.000000       
                  1                 
  1.19000e-07      1.37019e-11      1.12889e-11       25.000000       
                  1                 
  1.20000e-07      1.36806e-11      1.13215e-11       25.000000       
                  1                 
  1.21000e-07      1.36598e-11      1.13496e-11       25.000000       
                  1                 
  1.22000e-07      1.36396e-11      1.13470e-11       25.000000       
                  1                 
  1.23000e-07      1.36200e-11      1.13782e-11       25.000000       
                  1                 
  1.24000e-07      1.35991e-11      1.13915e-11       25.000000       
                  1                 
  1.25000e-07      1.35807e-11      1.14124e-11       25.000000       
                  1                 
  1.26000e-07      1.35628e-11      1.14313e-11       25.000000       
                  1                 
  1.27000e-07      1.35454e-11      1.14644e-11       25.000000       
                  1                 
  1.28000e-07      1.35286e-11      1.14768e-11       25.000000       
                  1                 
  1.29000e-07      1.35122e-11      1.14971e-11       25.000000       
                  1                 
  1.30000e-07      1.34963e-11      1.15189e-11       25.000000       
                  1                 
  1.31000e-07      1.34808e-11      1.15401e-11       25.000000       
                  1                 
  1.32000e-07      1.34658e-11      1.15617e-11       25.000000       
                  1                 
  1.33000e-07      1.34513e-11      1.15836e-11       25.000000       
                  1                 
  1.34000e-07      1.34372e-11      1.16058e-11       25.000000       
                  1                 
  1.35000e-07      1.34235e-11      1.16421e-11       25.000000       
                  1                 
  1.36000e-07      1.34102e-11      1.16640e-11       25.000000       
                  1                 
  1.37000e-07      1.33973e-11      1.16861e-11       25.000000       
                  1                 
  1.38000e-07      1.33848e-11      1.17085e-11       25.000000       
                  1                 
  1.39000e-07      1.33726e-11      1.17312e-11       25.000000       
                  1                 
  1.40000e-07      1.33609e-11      1.17363e-11       25.000000       
                  1                 
  1.41000e-07      1.33495e-11      1.17581e-11       25.000000       
                  1                 
  1.42000e-07      1.33385e-11      1.17993e-11       25.000000       
                  1                 
  1.43000e-07      1.33278e-11      1.18274e-11       25.000000       
                  1                 
  1.44000e-07      1.33175e-11      1.18476e-11       25.000000       
                  1                 
  1.45000e-07      1.33058e-11      1.18832e-11       25.000000       
                  1                 
  1.46000e-07      1.32943e-11      1.19055e-11       25.000000       
                  1                 
  1.47000e-07      1.32830e-11      1.19282e-11       25.000000       
                  1                 
  1.48000e-07      1.32721e-11      1.19512e-11       25.000000       
                  1                 
  1.49000e-07      1.32614e-11      1.19744e-11       25.000000       
                  1                 
  1.50000e-07      1.32511e-11      1.19984e-11       25.000000       
                  1                 
  1.51000e-07      1.32410e-11      1.20220e-11       25.000000       
                  1                 
  1.52000e-07      1.32313e-11      1.20458e-11       25.000000       
                  1                 
  1.53000e-07      1.32219e-11      1.20700e-11       25.000000       
                  1                 
  1.54000e-07      1.32128e-11      1.20739e-11       25.000000       
                  1                 
  1.55000e-07      1.32040e-11      1.20981e-11       25.000000       
                  1                 
  1.56000e-07      1.31954e-11      1.21112e-11       25.000000       
                  1                 
  1.57000e-07      1.31871e-11      1.21349e-11       25.000000       
                  1                 
  1.58000e-07      1.31791e-11      1.21588e-11       25.000000       
                  1                 
  1.59000e-07      1.31713e-11      1.21829e-11       25.000000       
                  1                 
  1.60000e-07      1.31638e-11      1.22071e-11       25.000000       
                  1                 
  1.61000e-07      1.31566e-11      1.22415e-11       25.000000       
                  1                 
  1.62000e-07      1.31495e-11      1.22659e-11       25.000000       
                  1                 
  1.63000e-07      1.31428e-11      1.22908e-11       25.000000       
                  1                 
  1.64000e-07      1.31362e-11      1.23157e-11       25.000000       
                  1                 
  1.65000e-07      1.31299e-11      1.23409e-11       25.000000       
                  1                 
  1.66000e-07      1.31238e-11      1.23663e-11       25.000000       
                  1                 
  1.67000e-07      1.31179e-11      1.23948e-11       25.000000       
                  1                 
  1.68000e-07      1.31122e-11      1.24158e-11       25.000000       
                  1                 
  1.69000e-07      1.31067e-11      1.24348e-11       25.000000       
                  1                 
  1.70000e-07      1.31015e-11      1.24544e-11       25.000000       
                  1                 
  1.71000e-07      1.30964e-11      1.24736e-11       25.000000       
                  1                 
  1.72000e-07      1.30917e-11      1.24941e-11       25.000000       
                  1                 
  1.73000e-07      1.30872e-11      1.25152e-11       25.000000       
                  1                 
  1.74000e-07      1.30828e-11      1.25379e-11       25.000000       
                  1                 
  1.75000e-07      1.30787e-11      1.25627e-11       25.000000       
                  1                 
  1.76000e-07      1.30747e-11      1.25872e-11       25.000000       
                  1                 
  1.77000e-07      1.30704e-11      1.26115e-11       25.000000       
                  1                 
  1.78000e-07      1.30678e-11      1.26362e-11       25.000000       
                  1                 
  1.79000e-07      1.30651e-11      1.26633e-11       25.000000       
                  1                 
  1.80000e-07      1.30626e-11      1.27099e-11       25.000000       
                  1                 
  1.81000e-07      1.30572e-11      1.27340e-11       25.000000       
                  1                 
  1.82000e-07      1.30517e-11      1.27583e-11       25.000000       
                  1                 
  1.83000e-07      1.30465e-11      1.27826e-11       25.000000       
                  1                 
  1.84000e-07      1.30416e-11      1.28070e-11       25.000000       
                  1                 
  1.85000e-07      1.30369e-11      1.28316e-11       25.000000       
                  1                 
  1.86000e-07      1.30217e-11      1.28635e-11       25.000000       
                  1                 
  1.87000e-07      1.30179e-11      1.28871e-11       25.000000       
                  1                 
  1.88000e-07      1.30143e-11      1.29128e-11       25.000000       
                  1                 
  1.89000e-07      1.30109e-11      1.29411e-11       25.000000       
                  1                 
  1.90000e-07      1.30077e-11      1.29688e-11       25.000000       
                  1                 
  1.91000e-07      1.30047e-11      1.29930e-11       25.000000       
                  1                 
  1.92000e-07      1.30018e-11      1.30032e-11       25.000000       
                  1                 
  1.93000e-07      1.29992e-11      1.30294e-11       25.000000       
                  1                 
  1.94000e-07      1.30022e-11      1.30549e-11       25.000000       
                  1                 
  1.95000e-07      1.29995e-11      1.30810e-11       25.000000       
                  1                 
  1.96000e-07      1.29969e-11      1.31069e-11       25.000000       
                  1                 
  1.97000e-07      1.29943e-11      1.31328e-11       25.000000       
                  1                 
  1.98000e-07      1.29917e-11      1.31183e-11       25.000000       
                  1                 
  1.99000e-07      1.29910e-11      1.32044e-11       25.000000       
                  1                 
  2.00000e-07      1.29905e-11      1.32314e-11       25.000000       
                  1                 
